<additional>
	<tlLogic id="gneJ355" type="actuated" programID="1" offset="6">
		<param key="detector-gap" value="2.0"/>
		<param key="file" value="NULL"/>
		<param key="freq" value="300"/>
		<param key="max-gap" value="3.0"/>
		<param key="passing-time" value="2.0"/>
		<param key="show-detectors" value="false"/>
		<param key="vTypes" value=""/>
		<phase name="(D2)" duration="7.0" maxDur="38.5" minDur="7.0" next="2" state="GGGrrrGGrG"/>
		<phase name="(D4)" duration="7.0" maxDur="20.5" minDur="7.0" next="4" state="rrrgGGrrGr"/>
		<phase name="(D2)-(D4)-Y" duration="3.5" next="3" state="yyyrrryyry"/>
		<phase name="(D2)-(D4)-R" duration="3.0" next="1" state="rrrrrrrrrr"/>
		<phase name="(D4)-(D2)-Y" duration="3.5" next="5" state="rrryyyrryr"/>
		<phase name="(D4)-(D2)-R" duration="1.0" next="0" state="rrrrrrrrrr"/>
		<param key="linkMaxDur:0" value="38.5"/>
		<param key="linkMinDur:0" value="7.0"/>
	</tlLogic>
	<tlLogic id="53073086" type="static" programID="1" offset="50">
		<phase name="(D2,D6,D9)" duration="58.5" maxDur="58.5" minDur="7.0" next="3" state="GGGrrrGggr"/>
		<phase name="(D2,D5,D9)" duration="12.5" maxDur="12.5" minDur="5.0" next="4" state="GGGrrrrrrG"/>
		<phase name="(D4)" duration="45.5" maxDur="45.5" minDur="7.0" next="6" state="rrrGGGrrrr"/>
		<phase name="(D2,D6,D9)-(D2,D5,D9)-Y" duration="3.5" next="1" state="GGGrrryyyr"/>
		<phase name="(D2,D5,D9)-(D4)-Y" duration="3.5" next="5" state="yyyrrrrrry"/>
		<phase name="(D2,D5,D9)-(D4)-R" duration="1.0" next="2" state="rrrrrrrrrr"/>
		<phase name="(D4)-(D2,D6,D9)-Y" duration="3.5" next="7" state="rrryyyrrrr"/>
		<phase name="(D4)-(D2,D6,D9)-R" duration="1.0" next="0" state="rrrrrrrrrr"/>
		<param key="linkMaxDur:0" value="58.5"/>
		<param key="linkMinDur:0" value="7.0"/>
		<param key="linkMaxDur:3" value="85.5"/>
		<param key="linkMinDur:3" value="7.0"/>
	</tlLogic>
	<tlLogic id="53189617" type="actuated" programID="1" offset="23">
		<param key="detector-gap" value="2.0"/>
		<param key="file" value="NULL"/>
		<param key="freq" value="300"/>
		<param key="max-gap" value="3.0"/>
		<param key="passing-time" value="2.0"/>
		<param key="show-detectors" value="false"/>
		<param key="vTypes" value=""/>
		<phase name="(D2)" duration="7.0" maxDur="41.5" minDur="7.0" next="3" state="GGrrrgGGrGr"/>
		<phase name="(D3)" duration="5.0" maxDur="6.5" minDur="5.0" next="4" state="GGGrrrrrrrr"/>
		<phase name="(D4)" duration="7.0" maxDur="19.0" minDur="7.0" next="6" state="rrrggrrrGrG"/>
		<phase name="(D2)-(D3)-Y" duration="3.5" next="1" state="GGrrryyyryr"/>
		<phase name="(D3)-(D4)-Y" duration="3.5" next="5" state="yyyrrrrrrrr"/>
		<phase name="(D3)-(D4)-R" duration="1.0" next="2" state="rrrrrrrrrrr"/>
		<phase name="(D4)-(D2)-Y" duration="3.0" next="7" state="rrryyrrryry"/>
		<phase name="(D4)-(D2)-R" duration="1.0" next="0" state="rrrrrrrrrrr"/>
		<param key="linkMaxDur:1" value="41.5"/>
		<param key="linkMinDur:1" value="7.0"/>
		<param key="linkMaxDur:3" value="6.5"/>
		<param key="linkMinDur:3" value="5.0"/>
	</tlLogic>
	<tlLogic id="53247506" type="actuated" programID="1" offset="49">
		<param key="detector-gap" value="2.0"/>
		<param key="file" value="NULL"/>
		<param key="freq" value="300"/>
		<param key="max-gap" value="3.0"/>
		<param key="passing-time" value="2.0"/>
		<param key="show-detectors" value="false"/>
		<param key="vTypes" value=""/>
		<phase name="(D2)" duration="7.0" maxDur="21.5" minDur="7.0" next="2" state="gGgrrrrgGGgrrrrrGrG"/>
		<phase name="(D4)" duration="7.0" maxDur="15.5" minDur="7.0" next="4" state="rrrgGGgrrrrgGGgGrGr"/>
		<phase name="(D2)-(D4)-Y" duration="3.5" next="3" state="yyyrrrryyyyrrrrryry"/>
		<phase name="(D2)-(D4)-R" duration="1.0" next="1" state="rrrrrrrrrrrrrrrrrrr"/>
		<phase name="(D4)-(D2)-Y" duration="5.0" next="5" state="rrryyyyrrrryyyyyryr"/>
		<phase name="(D4)-(D2)-R" duration="3.5" next="0" state="rrrrrrrrrrrrrrrrrrr"/>
		<param key="linkMaxDur:5" value="21.5"/>
		<param key="linkMinDur:5" value="7.0"/>
		<param key="linkMaxDur:1" value="15.5"/>
		<param key="linkMinDur:1" value="7.0"/>
	</tlLogic>
	<tlLogic id="6005458284" type="actuated" programID="1" offset="73">
		<param key="detector-gap" value="2.0"/>
		<param key="file" value="NULL"/>
		<param key="freq" value="300"/>
		<param key="max-gap" value="3.0"/>
		<param key="passing-time" value="2.0"/>
		<param key="show-detectors" value="false"/>
		<param key="vTypes" value=""/>
		<phase name="(D2,D6)" duration="7.0" maxDur="63.5" minDur="7.0" next="2" state="GrGr"/>
		<phase name="(D4)" duration="7.0" maxDur="39.0" minDur="7.0" next="4" state="rGrG"/>
		<phase name="(D2,D6)-(D4)-Y" duration="3.5" next="3" state="yryr"/>
		<phase name="(D2,D6)-(D4)-R" duration="1.0" next="1" state="rrrr"/>
		<phase name="(D4)-(D2,D6)-Y" duration="3.0" next="5" state="ryry"/>
		<phase name="(D4)-(D2,D6)-R" duration="0.0" next="0" state="rrrr"/>
		<param key="linkMaxDur:1" value="63.5"/>
		<param key="linkMinDur:1" value="7.0"/>
		<param key="linkMaxDur:2" value="39.0"/>
		<param key="linkMinDur:2" value="7.0"/>
		<param key="linkMaxDur:0" value="63.5"/>
		<param key="linkMinDur:0" value="7.0"/>
	</tlLogic>
	<tlLogic id="53155727" type="actuated" programID="1" offset="52">
		<param key="detector-gap" value="2.0"/>
		<param key="file" value="NULL"/>
		<param key="freq" value="300"/>
		<param key="max-gap" value="3.0"/>
		<param key="passing-time" value="2.0"/>
		<param key="show-detectors" value="false"/>
		<param key="vTypes" value=""/>
		<phase name="(D2,D6)" duration="7.0" maxDur="75.5" minDur="7.0" next="2" state="rrrgGGrrrgGgGrGr"/>
		<phase name="(D4)" duration="7.0" maxDur="25.5" minDur="7.0" next="4" state="gGgrrrgGgrrrrGrG"/>
		<phase name="(D2,D6)-(D4)-Y" duration="3.5" next="3" state="rrryyyrrryyyyryr"/>
		<phase name="(D2,D6)-(D4)-R" duration="1.0" next="1" state="rrrrrrrrrrrrrrrr"/>
		<phase name="(D4)-(D2,D6)-Y" duration="3.5" next="5" state="yyyrrryyyrrrryry"/>
		<phase name="(D4)-(D2,D6)-R" duration="1.0" next="0" state="rrrrrrrrrrrrrrrr"/>
		<param key="linkMaxDur:1" value="75.5"/>
		<param key="linkMinDur:1" value="7.0"/>
		<param key="linkMaxDur:7" value="25.5"/>
		<param key="linkMinDur:7" value="7.0"/>
		<param key="linkMaxDur:4" value="75.5"/>
		<param key="linkMinDur:4" value="7.0"/>
	</tlLogic>
	<tlLogic id="53155726" type="actuated" programID="1" offset="40">
		<param key="detector-gap" value="2.0"/>
		<param key="file" value="NULL"/>
		<param key="freq" value="300"/>
		<param key="max-gap" value="3.0"/>
		<param key="passing-time" value="2.0"/>
		<param key="show-detectors" value="false"/>
		<param key="vTypes" value=""/>
		<phase name="(D2,D6)" duration="7.0" maxDur="75.5" minDur="7.0" next="2" state="rrrgGgrrrgGgGGr"/>
		<phase name="(D4)" duration="7.0" maxDur="25.5" minDur="7.0" next="4" state="gGgrrrgGgrrrrrG"/>
		<phase name="(D2,D6)-(D4)-Y" duration="3.5" next="3" state="rrryyyrrryyyyyr"/>
		<phase name="(D2,D6)-(D4)-R" duration="1.0" next="1" state="rrrrrrrrrrrrrrr"/>
		<phase name="(D4)-(D2,D6)-Y" duration="3.5" next="5" state="yyyrrryyyrrrrry"/>
		<phase name="(D4)-(D2,D6)-R" duration="1.0" next="0" state="rrrrrrrrrrrrrrr"/>
		<param key="linkMaxDur:1" value="75.5"/>
		<param key="linkMinDur:1" value="7.0"/>
		<param key="linkMaxDur:4" value="25.5"/>
		<param key="linkMinDur:4" value="7.0"/>
		<param key="linkMaxDur:7" value="75.5"/>
		<param key="linkMinDur:7" value="7.0"/>
	</tlLogic>
	<tlLogic id="53155725" type="actuated" programID="1" offset="41">
		<param key="detector-gap" value="2.0"/>
		<param key="file" value="NULL"/>
		<param key="freq" value="300"/>
		<param key="max-gap" value="3.0"/>
		<param key="passing-time" value="2.0"/>
		<param key="show-detectors" value="false"/>
		<param key="vTypes" value=""/>
		<phase name="(D2,D6)" duration="7.0" maxDur="70.5" minDur="7.0" next="2" state="rrrgGgrrrgGGgGrGr"/>
		<phase name="(D4)" duration="7.0" maxDur="31.5" minDur="7.0" next="4" state="gGgrrrgGgrrrrrGrG"/>
		<phase name="(D2,D6)-(D4)-Y" duration="3.5" next="3" state="rrryyyrrryyyyyryr"/>
		<phase name="(D2,D6)-(D4)-R" duration="1.0" next="1" state="rrrrrrrrrrrrrrrrr"/>
		<phase name="(D4)-(D2,D6)-Y" duration="3.5" next="5" state="yyyrrryyyrrrrryry"/>
		<phase name="(D4)-(D2,D6)-R" duration="0.0" next="0" state="rrrrrrrrrrrrrrrrr"/>
		<param key="linkMaxDur:4" value="70.5"/>
		<param key="linkMinDur:4" value="7.0"/>
		<param key="linkMaxDur:1" value="31.5"/>
		<param key="linkMinDur:1" value="7.0"/>
		<param key="linkMaxDur:7" value="70.5"/>
		<param key="linkMinDur:7" value="7.0"/>
	</tlLogic>
	<tlLogic id="53144256" type="actuated" programID="1" offset="35">
		<param key="detector-gap" value="2.0"/>
		<param key="file" value="NULL"/>
		<param key="freq" value="300"/>
		<param key="max-gap" value="3.0"/>
		<param key="passing-time" value="2.0"/>
		<param key="show-detectors" value="false"/>
		<param key="vTypes" value=""/>
		<phase name="(D2,D6)" duration="7.0" maxDur="75.5" minDur="7.0" next="2" state="gGggGGgGrGr"/>
		<phase name="(D4)" duration="7.0" maxDur="26.5" minDur="7.0" next="3" state="rrrrrrrGGGG"/>
		<phase name="(D2,D6)-(D4)-Y" duration="3.5" next="1" state="yyyyyyyGrGr"/>
		<phase name="(D4)-(D2,D6)-Y" duration="3.5" next="0" state="rrrrrrrGyGy"/>
		<param key="linkMaxDur:1" value="75.5"/>
		<param key="linkMinDur:1" value="7.0"/>
		<param key="linkMaxDur:4" value="75.5"/>
		<param key="linkMinDur:4" value="7.0"/>
	</tlLogic>
	<tlLogic id="53155724" type="actuated" programID="1" offset="41">
		<param key="detector-gap" value="2.0"/>
		<param key="file" value="NULL"/>
		<param key="freq" value="300"/>
		<param key="max-gap" value="3.0"/>
		<param key="passing-time" value="2.0"/>
		<param key="show-detectors" value="false"/>
		<param key="vTypes" value=""/>
		<phase name="(D2,D6)" duration="7.0" maxDur="70.5" minDur="7.0" next="2" state="rrrGGGGrr"/>
		<phase name="(D4)" duration="7.0" maxDur="30.5" minDur="7.0" next="4" state="gGGrrrrrG"/>
		<phase name="(D2,D6)-(D4)-Y" duration="3.5" next="3" state="rrryyyyrr"/>
		<phase name="(D2,D6)-(D4)-R" duration="1.0" next="1" state="rrrrrrrrr"/>
		<phase name="(D4)-(D2,D6)-Y" duration="3.5" next="5" state="yyyrrrrry"/>
		<phase name="(D4)-(D2,D6)-R" duration="1.0" next="0" state="rrrrrrrrr"/>
		<param key="linkMaxDur:5" value="70.5"/>
		<param key="linkMinDur:5" value="7.0"/>
		<param key="linkMaxDur:3" value="30.5"/>
		<param key="linkMinDur:3" value="7.0"/>
		<param key="linkMaxDur:0" value="70.5"/>
		<param key="linkMinDur:0" value="7.0"/>
	</tlLogic>
	<tlLogic id="53155723" type="actuated" programID="1" offset="60">
		<param key="detector-gap" value="2.0"/>
		<param key="file" value="NULL"/>
		<param key="freq" value="300"/>
		<param key="max-gap" value="3.0"/>
		<param key="passing-time" value="2.0"/>
		<param key="show-detectors" value="false"/>
		<param key="vTypes" value=""/>
		<phase name="(D2,D6)" duration="7.0" maxDur="45.5" minDur="7.0" next="2" state="gGrrrGGgGrGr"/>
		<phase name="(D4,D8)" duration="7.0" maxDur="55.5" minDur="7.0" next="3" state="rrgggrrrGGrG"/>
		<phase name="(D2,D6)-(D4,D8)-Y" duration="3.5" next="1" state="yyrrryyyGryr"/>
		<phase name="(D4,D8)-(D2,D6)-Y" duration="3.5" next="0" state="rryyyrrrGyry"/>
		<param key="linkMaxDur:4" value="45.5"/>
		<param key="linkMinDur:4" value="7.0"/>
		<param key="linkMaxDur:5" value="45.5"/>
		<param key="linkMinDur:5" value="7.0"/>
	</tlLogic>
	<tlLogic id="53018668" type="actuated" programID="1" offset="32">
		<param key="detector-gap" value="2.0"/>
		<param key="file" value="NULL"/>
		<param key="freq" value="300"/>
		<param key="max-gap" value="3.0"/>
		<param key="passing-time" value="2.0"/>
		<param key="show-detectors" value="false"/>
		<param key="vTypes" value=""/>
		<phase name="(D2)" duration="7.0" maxDur="72.5" minDur="7.0" next="2" state="rrGGGGrr"/>
		<phase name="(D4)" duration="7.0" maxDur="28.5" minDur="7.0" next="4" state="gGrrrrrG"/>
		<phase name="(D2)-(D4)-Y" duration="3.5" next="3" state="rryyyyrr"/>
		<phase name="(D2)-(D4)-R" duration="1.0" next="1" state="rrrrrrrr"/>
		<phase name="(D4)-(D2)-Y" duration="3.5" next="5" state="yyrrrrry"/>
		<phase name="(D4)-(D2)-R" duration="1.0" next="0" state="rrrrrrrr"/>
		<param key="linkMaxDur:2" value="72.5"/>
		<param key="linkMinDur:2" value="7.0"/>
		<param key="linkMaxDur:1" value="28.5"/>
		<param key="linkMinDur:1" value="7.0"/>
	</tlLogic>
	<tlLogic id="3916774509" type="actuated" programID="1" offset="16">
		<param key="detector-gap" value="2.0"/>
		<param key="file" value="NULL"/>
		<param key="freq" value="300"/>
		<param key="max-gap" value="3.0"/>
		<param key="passing-time" value="2.0"/>
		<param key="show-detectors" value="false"/>
		<param key="vTypes" value=""/>
		<phase name="(D2,D5)" duration="5.0" maxDur="28.5" minDur="5.0" next="3" state="rgGGrrrgGGrrr"/>
		<phase name="(D2,D6)" duration="7.0" maxDur="34.0" minDur="7.0" next="4" state="rgGrrrrgGGrGr"/>
		<phase name="(D4,D8)" duration="7.0" maxDur="35.5" minDur="7.0" next="6" state="GrrrgGgrrrGrr"/>
		<phase name="(D2,D5)-(D2,D6)-Y" duration="3.5" next="1" state="rgGyrrrgGGrrr"/>
		<phase name="(D2,D6)-(D4,D8)-Y" duration="3.0" next="5" state="ryyrrrryyyryr"/>
		<phase name="(D2,D6)-(D4,D8)-R" duration="0.0" next="2" state="rrrrrrrrrrrrr"/>
		<phase name="(D4,D8)-(D2,D5)-Y" duration="3.5" next="7" state="yrrryyyrrryrr"/>
		<phase name="(D4,D8)-(D2,D5)-R" duration="1.0" next="0" state="rrrrrrrrrrrrr"/>
		<param key="linkMaxDur:4" value="65.5"/>
		<param key="linkMinDur:4" value="7.0"/>
		<param key="linkMaxDur:1" value="35.5"/>
		<param key="linkMinDur:1" value="7.0"/>
		<param key="linkMaxDur:8" value="28.5"/>
		<param key="linkMinDur:8" value="5.0"/>
		<param key="linkMaxDur:5" value="35.5"/>
		<param key="linkMinDur:5" value="7.0"/>
	</tlLogic>
	<tlLogic id="1926509619" type="actuated" programID="1" offset="0">
		<param key="detector-gap" value="2.0"/>
		<param key="file" value="NULL"/>
		<param key="freq" value="300"/>
		<param key="max-gap" value="3.0"/>
		<param key="passing-time" value="2.0"/>
		<param key="show-detectors" value="false"/>
		<param key="vTypes" value=""/>
		<phase name="(D2,D5)" duration="5.0" maxDur="25.5" minDur="5.0" next="1" state="rrrrrrgGGrrrrr"/>
		<phase name="(D2,D6)" duration="7.0" maxDur="43.5" minDur="7.0" next="3" state="gGgrrrgGgrrrrG"/>
		<phase name="(D4,D8)" duration="7.0" maxDur="27.5" minDur="7.0" next="5" state="rrrgGgrrrgGgGr"/>
		<phase name="(D2,D6)-(D4,D8)-Y" duration="3.5" next="4" state="yyyrrryyyrrrry"/>
		<phase name="(D2,D6)-(D4,D8)-R" duration="1.0" next="2" state="rrrrrrrrrrrrrr"/>
		<phase name="(D4,D8)-(D2,D5)-Y" duration="3.5" next="6" state="rrryyyrrryyyyr"/>
		<phase name="(D4,D8)-(D2,D5)-R" duration="1.0" next="0" state="rrrrrrrrrrrrrr"/>
		<param key="linkMaxDur:7" value="73.5"/>
		<param key="linkMinDur:7" value="7.0"/>
		<param key="linkMaxDur:1" value="27.5"/>
		<param key="linkMinDur:1" value="7.0"/>
		<param key="linkMaxDur:8" value="25.5"/>
		<param key="linkMinDur:8" value="5.0"/>
		<param key="linkMaxDur:4" value="43.5"/>
		<param key="linkMinDur:4" value="7.0"/>
		<param key="linkMaxDur:10" value="27.5"/>
		<param key="linkMinDur:10" value="7.0"/>
	</tlLogic>
	<tlLogic id="1565882716" type="actuated" programID="1" offset="11">
		<param key="detector-gap" value="2.0"/>
		<param key="file" value="NULL"/>
		<param key="freq" value="300"/>
		<param key="max-gap" value="3.0"/>
		<param key="passing-time" value="2.0"/>
		<param key="show-detectors" value="false"/>
		<param key="vTypes" value=""/>
		<phase name="(D2)" duration="7.0" maxDur="53.5" minDur="7.0" next="3" state="gGgrrrgGgrrrG"/>
		<phase name="(D4)" duration="7.0" maxDur="21.5" minDur="7.0" next="5" state="rrrgGgrrrrrrr"/>
		<phase name="(D8)" duration="7.0" maxDur="21.5" minDur="7.0" next="7" state="rrrrrrrrrgGgr"/>
		<phase name="(D2)-(D4)-Y" duration="3.5" next="4" state="yyyrrryyyrrry"/>
		<phase name="(D2)-(D4)-R" duration="1.0" next="1" state="rrrrrrrrrrrrr"/>
		<phase name="(D4)-(D8)-Y" duration="3.5" next="6" state="rrryyyrrrrrrr"/>
		<phase name="(D4)-(D8)-R" duration="1.0" next="2" state="rrrrrrrrrrrrr"/>
		<phase name="(D8)-(D2)-Y" duration="3.5" next="8" state="rrrrrrrrryyyr"/>
		<phase name="(D8)-(D2)-R" duration="1.0" next="0" state="rrrrrrrrrrrrr"/>
		<param key="linkMaxDur:4" value="53.5"/>
		<param key="linkMinDur:4" value="7.0"/>
		<param key="linkMaxDur:1" value="21.5"/>
		<param key="linkMinDur:1" value="7.0"/>
		<param key="linkMaxDur:7" value="21.5"/>
		<param key="linkMinDur:7" value="7.0"/>
	</tlLogic>
	<tlLogic id="gneJ359" type="static" programID="1" offset="85">
		<phase name="(D1)" duration="55.5" maxDur="55.5" minDur="7.0" next="2" state="rrrgGGrrrgGGGrrGrr"/>
		<phase name="(D2)" duration="25.5" maxDur="25.5" minDur="7.0" next="4" state="gGgrrrgGgrrrrGGrGG"/>
		<phase name="(D1)-(D2)-Y" duration="3.5" next="3" state="rrryyyrrryyyyrryrr"/>
		<phase name="(D1)-(D2)-R" duration="1.0" next="1" state="rrrrrrrrrrrrrrrrrr"/>
		<phase name="(D2)-(D1)-Y" duration="3.5" next="5" state="yyyrrryyyrrrryyryy"/>
		<phase name="(D2)-(D1)-R" duration="1.0" next="0" state="rrrrrrrrrrrrrrrrrr"/>
		<param key="linkMaxDur:1" value="55.5"/>
		<param key="linkMinDur:1" value="7.0"/>
		<param key="linkMaxDur:7" value="25.5"/>
		<param key="linkMinDur:7" value="7.0"/>
	</tlLogic>
	<tlLogic id="gneJ352" type="static" programID="1" offset="75">
		<phase name="(D1)" duration="60.5" maxDur="60.5" minDur="7.0" next="2" state="rrgGGrrrGGgGrrGrr"/>
		<phase name="(D2)" duration="20.5" maxDur="20.5" minDur="7.0" next="4" state="ggrrrgGgrrrrGGrGG"/>
		<phase name="(D1)-(D2)-Y" duration="3.5" next="3" state="rryyyrrryyyyrryrr"/>
		<phase name="(D1)-(D2)-R" duration="1.0" next="1" state="rrrrrrrrrrrrrrrrr"/>
		<phase name="(D2)-(D1)-Y" duration="3.5" next="5" state="yyrrryyyrrrryyryy"/>
		<phase name="(D2)-(D1)-R" duration="1.0" next="0" state="rrrrrrrrrrrrrrrrr"/>
		<param key="linkMaxDur:6" value="60.5"/>
		<param key="linkMinDur:6" value="7.0"/>
		<param key="linkMaxDur:3" value="20.5"/>
		<param key="linkMinDur:3" value="7.0"/>
	</tlLogic>
	<tlLogic id="2481926130" type="actuated" programID="1" offset="42">
		<param key="detector-gap" value="2.0"/>
		<param key="file" value="NULL"/>
		<param key="freq" value="300"/>
		<param key="max-gap" value="3.0"/>
		<param key="passing-time" value="2.0"/>
		<param key="show-detectors" value="false"/>
		<param key="vTypes" value=""/>
		<phase name="(D1)" duration="7.0" maxDur="20.0" minDur="7.0" next="1" state="rrrgGGGGgrGGrGGr"/>
		<phase name="(D3)" duration="5.0" maxDur="19.0" minDur="5.0" next="3" state="rrrgGGGGgrGGrGGr"/>
		<phase name="(D2)" duration="7.0" maxDur="33.5" minDur="7.0" next="5" state="gGGrrrrrrGrrGrrG"/>
		<phase name="(D3)-(D2)-Y" duration="3.5" next="4" state="rrryyyyyyryyryyr"/>
		<phase name="(D3)-(D2)-R" duration="2.5" next="2" state="rrrrrrrrrrrrrrrr"/>
		<phase name="(D2)-(D1)-Y" duration="3.5" next="6" state="yyyrrrrrryrryrry"/>
		<phase name="(D2)-(D1)-R" duration="2.0" next="0" state="rrrrrrrrrrrrrrrr"/>
		<param key="linkMaxDur:5" value="20.0"/>
		<param key="linkMinDur:5" value="5.0"/>
		<param key="linkMaxDur:0" value="33.5"/>
		<param key="linkMinDur:0" value="7.0"/>
		<param key="linkMaxDur:6" value="19.0"/>
		<param key="linkMinDur:6" value="5.0"/>
	</tlLogic>
	<tlLogic id="gneJ356" type="static" programID="1" offset="76">
		<phase name="(D1)" duration="58.5" maxDur="58.5" minDur="7.0" next="2" state="gGGrrrgGGgrrrrrGrrG"/>
		<phase name="(D2)" duration="22.5" maxDur="22.5" minDur="7.0" next="4" state="rrrgGgrrrrgGgGGrGGr"/>
		<phase name="(D1)-(D2)-Y" duration="3.5" next="3" state="yyyrrryyyyrrrrryrry"/>
		<phase name="(D1)-(D2)-R" duration="1.0" next="1" state="rrrrrrrrrrrrrrrrrrr"/>
		<phase name="(D2)-(D1)-Y" duration="3.5" next="5" state="rrryyyrrrryyyyyryyr"/>
		<phase name="(D2)-(D1)-R" duration="1.0" next="0" state="rrrrrrrrrrrrrrrrrrr"/>
		<param key="linkMaxDur:1" value="58.5"/>
		<param key="linkMinDur:1" value="7.0"/>
		<param key="linkMaxDur:4" value="22.5"/>
		<param key="linkMinDur:4" value="7.0"/>
	</tlLogic>
	<tlLogic id="53144731" type="static" programID="1" offset="85">
		<phase name="(D1)" duration="55.5" maxDur="55.5" minDur="7.0" next="2" state="gGGGGgGrr"/>
		<phase name="(D2)" duration="27.0" maxDur="27.0" minDur="7.0" next="3" state="rrrrrrGGG"/>
		<phase name="(D1)-(D2)-Y" duration="3.5" next="1" state="yyyyyyGrr"/>
		<phase name="(D2)-(D1)-Y" duration="3.0" next="0" state="rrrrrrGyy"/>
		<param key="linkMaxDur:1" value="55.5"/>
		<param key="linkMinDur:1" value="7.0"/>
	</tlLogic>
	<tlLogic id="53142127" type="actuated" programID="1" offset="5">
		<param key="detector-gap" value="2.0"/>
		<param key="file" value="NULL"/>
		<param key="freq" value="300"/>
		<param key="max-gap" value="3.0"/>
		<param key="passing-time" value="2.0"/>
		<param key="show-detectors" value="false"/>
		<param key="vTypes" value=""/>
		<phase name="(D2,D6)" duration="7.0" maxDur="40.5" minDur="7.0" next="4" state="rrrrrrrGGggGGGrGr"/>
		<phase name="(D4,D8)" duration="7.0" maxDur="17.5" minDur="7.0" next="6" state="gGgGgGgrrrrrrrGrG"/>
		<phase name="(D3,D8)" duration="5.0" maxDur="6.5" minDur="5.0" next="7" state="gGgGGGGrrrrrrrrrG"/>
		<phase name="(D9)" duration="5.0" maxDur="7.5" minDur="5.0" next="8" state="rrrrrrrrrrrrrGGGG"/>
		<phase name="(D2,D6)-(D4,D8)-Y" duration="3.5" next="5" state="rrrrrrryyyyyyyryr"/>
		<phase name="(D2,D6)-(D4,D8)-R" duration="1.0" next="1" state="rrrrrrrrrrrrrrrrr"/>
		<phase name="(D4,D8)-(D3,D8)-Y" duration="3.5" next="2" state="gGgGgGgrrrrrrryrG"/>
		<phase name="(D3,D8)-(D9)-Y" duration="3.5" next="3" state="yyyyyyyrrrrrrrrrG"/>
		<phase name="(D9)-(D2,D6)-Y" duration="3.5" next="0" state="rrrrrrrrrrrrrGyGy"/>
		<param key="linkMaxDur:3" value="40.5"/>
		<param key="linkMinDur:3" value="7.0"/>
		<param key="linkMaxDur:10" value="6.5"/>
		<param key="linkMinDur:10" value="5.0"/>
		<param key="linkMaxDur:1" value="40.5"/>
		<param key="linkMinDur:1" value="7.0"/>
		<param key="linkMaxDur:7" value="28.5"/>
		<param key="linkMinDur:7" value="7.0"/>
	</tlLogic>
	<tlLogic id="53144733" type="static" programID="1" offset="12">
		<phase name="(D1)" duration="53.5" maxDur="53.5" minDur="7.0" next="2" state="gGGGrrrrrGGgGrGr"/>
		<phase name="(D2)" duration="27.5" maxDur="27.5" minDur="7.0" next="4" state="rrrrgGGggrrrrGrG"/>
		<phase name="(D1)-(D2)-Y" duration="3.5" next="3" state="yyyyrrrrryyyyryr"/>
		<phase name="(D1)-(D2)-R" duration="1.0" next="1" state="rrrrrrrrrrrrrrrr"/>
		<phase name="(D2)-(D1)-Y" duration="3.5" next="5" state="rrrryyyyyrrrryry"/>
		<phase name="(D2)-(D1)-R" duration="1.0" next="0" state="rrrrrrrrrrrrrrrr"/>
		<param key="linkMaxDur:0" value="53.5"/>
		<param key="linkMinDur:0" value="7.0"/>
		<param key="linkMaxDur:4" value="27.5"/>
		<param key="linkMinDur:4" value="7.0"/>
	</tlLogic>
	<tlLogic id="53114262" type="static" programID="1" offset="32">
		<phase name="(D1)" duration="50.5" maxDur="50.5" minDur="7.0" next="2" state="gGrrrrGgGrGr"/>
		<phase name="(D2)" duration="50.5" maxDur="50.5" minDur="7.0" next="4" state="rrgGGgrrrGrG"/>
		<phase name="(D1)-(D2)-Y" duration="3.5" next="3" state="yyrrrryyyryr"/>
		<phase name="(D1)-(D2)-R" duration="1.0" next="1" state="rrrrrrrrrrrr"/>
		<phase name="(D2)-(D1)-Y" duration="3.5" next="5" state="rryyyyrrryry"/>
		<phase name="(D2)-(D1)-R" duration="1.0" next="0" state="rrrrrrrrrrrr"/>
		<param key="linkMaxDur:4" value="50.5"/>
		<param key="linkMinDur:4" value="7.0"/>
		<param key="linkMaxDur:1" value="50.5"/>
		<param key="linkMinDur:1" value="7.0"/>
	</tlLogic>
	<tlLogic id="53114263" type="static" programID="1" offset="23">
		<phase name="(D1)" duration="50.5" maxDur="50.5" minDur="7.0" next="2" state="rrrrGggGGrGr"/>
		<phase name="(D2)" duration="50.5" maxDur="50.5" minDur="7.0" next="4" state="gGGgrrrrrGrG"/>
		<phase name="(D1)-(D2)-Y" duration="3.5" next="3" state="rrrryyyyyryr"/>
		<phase name="(D1)-(D2)-R" duration="1.0" next="1" state="rrrrrrrrrrrr"/>
		<phase name="(D2)-(D1)-Y" duration="3.5" next="5" state="yyyyrrrrryry"/>
		<phase name="(D2)-(D1)-R" duration="1.0" next="0" state="rrrrrrrrrrrr"/>
		<param key="linkMaxDur:1" value="50.5"/>
		<param key="linkMinDur:1" value="7.0"/>
		<param key="linkMaxDur:3" value="50.5"/>
		<param key="linkMinDur:3" value="7.0"/>
	</tlLogic>
	<tlLogic id="53114264" type="static" programID="1" offset="11">
		<phase name="(D1)" duration="55.5" maxDur="55.5" minDur="7.0" next="2" state="gGrrrrGgGrGr"/>
		<phase name="(D2)" duration="45.5" maxDur="45.5" minDur="7.0" next="4" state="rrgGGgrrrGrG"/>
		<phase name="(D1)-(D2)-Y" duration="3.5" next="3" state="yyrrrryyyryr"/>
		<phase name="(D1)-(D2)-R" duration="1.0" next="1" state="rrrrrrrrrrrr"/>
		<phase name="(D2)-(D1)-Y" duration="3.5" next="5" state="rryyyyrrryry"/>
		<phase name="(D2)-(D1)-R" duration="1.0" next="0" state="rrrrrrrrrrrr"/>
		<param key="linkMaxDur:0" value="55.5"/>
		<param key="linkMinDur:0" value="7.0"/>
		<param key="linkMaxDur:5" value="45.5"/>
		<param key="linkMinDur:5" value="7.0"/>
	</tlLogic>
	<tlLogic id="53144257" type="static" programID="1" offset="7">
		<phase name="(D1)" duration="52.5" maxDur="52.5" minDur="7.0" next="2" state="gGGGrrrrGGgGrGr"/>
		<phase name="(D2)" duration="28.5" maxDur="28.5" minDur="7.0" next="4" state="rrrrgGGgrrrrGrG"/>
		<phase name="(D1)-(D2)-Y" duration="3.5" next="3" state="yyyyrrrryyyyryr"/>
		<phase name="(D1)-(D2)-R" duration="1.0" next="1" state="rrrrrrrrrrrrrrr"/>
		<phase name="(D2)-(D1)-Y" duration="3.5" next="5" state="rrrryyyyrrrryry"/>
		<phase name="(D2)-(D1)-R" duration="1.0" next="0" state="rrrrrrrrrrrrrrr"/>
		<param key="linkMaxDur:0" value="52.5"/>
		<param key="linkMinDur:0" value="7.0"/>
		<param key="linkMaxDur:8" value="28.5"/>
		<param key="linkMinDur:8" value="7.0"/>
	</tlLogic>
	<tlLogic id="53144734" type="static" programID="1" offset="17">
		<phase name="(D1)" duration="49.5" maxDur="49.5" minDur="7.0" next="2" state="rrrrGGGggGGGrGr"/>
		<phase name="(D2)" duration="31.5" maxDur="31.5" minDur="7.0" next="4" state="gGGgrrrrrrrrGrG"/>
		<phase name="(D1)-(D2)-Y" duration="3.5" next="3" state="rrrryyyyyyyyryr"/>
		<phase name="(D1)-(D2)-R" duration="1.0" next="1" state="rrrrrrrrrrrrrrr"/>
		<phase name="(D2)-(D1)-Y" duration="3.5" next="5" state="yyyyrrrrrrrryry"/>
		<phase name="(D2)-(D1)-R" duration="1.0" next="0" state="rrrrrrrrrrrrrrr"/>
		<param key="linkMaxDur:1" value="49.5"/>
		<param key="linkMinDur:1" value="7.0"/>
		<param key="linkMaxDur:8" value="31.5"/>
		<param key="linkMinDur:8" value="7.0"/>
	</tlLogic>
	<tlLogic id="53017297" type="static" programID="1" offset="8">
		<phase name="(D2)" duration="61.5" maxDur="61.5" minDur="7.0" next="2" state="rrGGGGGGrr"/>
		<phase name="(D4)" duration="19.5" maxDur="19.5" minDur="7.0" next="4" state="ggrrrrrrGG"/>
		<phase name="(D2)-(D4)-Y" duration="3.5" next="3" state="rryyyyyyrr"/>
		<phase name="(D2)-(D4)-R" duration="1.0" next="1" state="rrrrrrrrrr"/>
		<phase name="(D4)-(D2)-Y" duration="3.5" next="5" state="yyrrrrrryy"/>
		<phase name="(D4)-(D2)-R" duration="1.0" next="0" state="rrrrrrrrrr"/>
		<param key="linkMaxDur:0" value="61.5"/>
		<param key="linkMinDur:0" value="7.0"/>
	</tlLogic>
	<tlLogic id="53144737" type="static" programID="1" offset="16">
		<phase name="(D1)" duration="56.5" maxDur="56.5" minDur="7.0" next="2" state="gGGGGGgGrr"/>
		<phase name="(D2)" duration="26.0" maxDur="26.0" minDur="7.0" next="3" state="rrrrrrrGGG"/>
		<phase name="(D1)-(D2)-Y" duration="3.5" next="1" state="yyyyyyyGrr"/>
		<phase name="(D2)-(D1)-Y" duration="3.0" next="0" state="rrrrrrrGyy"/>
		<param key="linkMaxDur:0" value="56.5"/>
		<param key="linkMinDur:0" value="7.0"/>
	</tlLogic>
	<tlLogic id="1178349141" type="static" programID="1" offset="16">
		<phase name="(D1)" duration="55.5" maxDur="55.5" minDur="7.0" next="2" state="rrrgGGgrrrgGGgGrGr"/>
		<phase name="(D2)" duration="25.5" maxDur="25.5" minDur="7.0" next="4" state="gGgrrrrgGgrrrrrGrG"/>
		<phase name="(D1)-(D2)-Y" duration="3.5" next="3" state="rrryyyyrrryyyyyryr"/>
		<phase name="(D1)-(D2)-R" duration="1.0" next="1" state="rrrrrrrrrrrrrrrrrr"/>
		<phase name="(D2)-(D1)-Y" duration="3.5" next="5" state="yyyrrrryyyrrrrryry"/>
		<phase name="(D2)-(D1)-R" duration="1.0" next="0" state="rrrrrrrrrrrrrrrrrr"/>
		<param key="linkMaxDur:4" value="55.5"/>
		<param key="linkMinDur:4" value="7.0"/>
		<param key="linkMaxDur:1" value="25.5"/>
		<param key="linkMinDur:1" value="7.0"/>
	</tlLogic>
	<tlLogic id="53142964" type="static" programID="1" offset="29">
		<phase name="(D1)" duration="49.5" maxDur="49.5" minDur="7.0" next="2" state="gGGGggggGGgGrGGr"/>
		<phase name="(D2)" duration="33.0" maxDur="33.0" minDur="7.0" next="3" state="rrrrrrrrrrrGGGGG"/>
		<phase name="(D1)-(D2)-Y" duration="3.5" next="1" state="yyyyyyyyyyyGrGGr"/>
		<phase name="(D2)-(D1)-Y" duration="3.0" next="0" state="rrrrrrrrrrrGyGGy"/>
		<param key="linkMaxDur:2" value="49.5"/>
		<param key="linkMinDur:2" value="7.0"/>
	</tlLogic>
	<tlLogic id="53144740" type="static" programID="1" offset="33">
		<phase name="(D1)" duration="49.5" maxDur="49.5" minDur="7.0" next="2" state="rrrGGGgrgGGGrGr"/>
		<phase name="(D2)" duration="31.5" maxDur="31.5" minDur="7.0" next="4" state="gGgrrrrgrrrrGrG"/>
		<phase name="(D1)-(D2)-Y" duration="3.5" next="3" state="rrryyyyryyyyryr"/>
		<phase name="(D1)-(D2)-R" duration="1.0" next="1" state="rrrrrrrrrrrrrrr"/>
		<phase name="(D2)-(D1)-Y" duration="3.5" next="5" state="yyyrrrryrrrryry"/>
		<phase name="(D2)-(D1)-R" duration="1.0" next="0" state="rrrrrrrrrrrrrrr"/>
		<param key="linkMaxDur:1" value="49.5"/>
		<param key="linkMinDur:1" value="7.0"/>
		<param key="linkMaxDur:9" value="31.5"/>
		<param key="linkMinDur:9" value="7.0"/>
	</tlLogic>
	<tlLogic id="53144743" type="static" programID="1" offset="34">
		<phase name="(D1)" duration="58.5" maxDur="58.5" minDur="7.0" next="2" state="gGGrrrrGGgGrGr"/>