<?xml version="1.0" encoding="UTF-8"?>
<routes xmlns:xsi="http://www.w3.org/2001/XMLSchema-instance" xsi:noNamespaceSchemaLocation="http://sumo.dlr.de/xsd/routes_file.xsd">
<vType vClass="bus" accel="1.2" color="red" decel="3.5" guiShape="bus" id="bus" length="12" maxSpeed="70" sigma="0.7" width="2.5"/>
<vType vClass="rail_urban" id="rail_urban"/>
	<trip id="10_41979657" type="bus" depart="00:00:00" from="460423550#0" to="623536799">
		<stop busStop="1085" until="00:00:00"/>
		<stop busStop="1110" until="00:01:25"/>
		<stop busStop="1120" until="00:02:00"/>
		<stop busStop="1180" until="00:05:00"/>
		<stop busStop="11130" until="00:07:37"/>
		<stop busStop="11132" until="00:09:00"/>
		<stop busStop="13460" until="00:11:13"/>
		<stop busStop="29268" until="00:13:02"/>
		<stop busStop="29270" until="00:15:00"/>
	</trip>

	<trip id="10_41979730_0" type="bus" depart="00:00:00" from="460423550#0" to="460423550#0">
		<stop busStop="1085" until="00:00:00"/>
	</trip>

	<trip id="13_49194874" type="bus" depart="00:00:00" from="460421475#1" to="-456673731">
		<stop busStop="2672" until="00:00:00"/>
		<stop busStop="2180" until="00:00:57"/>
		<stop busStop="2200" until="00:02:05"/>
		<stop busStop="2244" until="00:03:49"/>
		<stop busStop="2220" until="00:05:00"/>
	</trip>

	<trip id="2_49192917_0" type="bus" depart="00:00:00" from="532243339#0" to="428248874#5">
		<stop busStop="575" until="00:00:00"/>
		<stop busStop="600" until="00:02:03"/>
		<stop busStop="605" until="00:03:34"/>
		<stop busStop="1690" until="00:04:48"/>
		<stop busStop="2320" until="00:06:49"/>
		<stop busStop="2330" until="00:08:00"/>
		<stop busStop="2360" until="00:09:55"/>
	</trip>

	<trip id="21_47580428_0" type="bus" depart="00:00:00" from="-456673729#0" to="-456673729#0">
		<stop busStop="30635" until="00:00:00"/>
	</trip>

	<trip id="24_47376848_0" type="bus" depart="00:00:00" from="649725824#1" to="22759220#1">
		<stop busStop="19470" until="00:00:03"/>
		<stop busStop="19480" until="00:00:36"/>
	</trip>

	<trip id="5_47580302" type="bus" depart="00:00:00" from="-456673729#0" to="52840083">
		<stop busStop="30635" until="00:00:00"/>
		<stop busStop="619" until="00:03:00"/>
		<stop busStop="531" until="00:04:47"/>
		<stop busStop="548" until="00:06:34"/>
		<stop busStop="570" until="00:08:30"/>
		<stop busStop="590" until="00:10:00"/>
		<stop busStop="600" until="00:10:58"/>
		<stop busStop="605" until="00:12:10"/>
		<stop busStop="6236" until="00:13:58"/>
		<stop busStop="6237" until="00:15:00"/>
	</trip>

	<trip id="7_49193340_0" type="bus" depart="00:00:00" from="gneE401" to="15257627#1">
		<stop busStop="1471" until="00:00:00"/>
		<stop busStop="1480" until="00:00:55"/>
		<stop busStop="1490" until="00:01:36"/>
	</trip>

	<trip id="8_47378570_0" type="bus" depart="00:00:00" from="-524878319#3" to="428248874#5">
		<stop busStop="2295" until="00:00:00"/>
		<stop busStop="2297" until="00:01:13"/>
		<stop busStop="2300" until="00:02:12"/>
		<stop busStop="20830" until="00:03:19"/>
		<stop busStop="2330" until="00:05:19"/>
		<stop busStop="2360" until="00:07:46"/>
	</trip>

	<trip id="D_Line_49196064_0" type="bus" depart="00:00:00" from="-460425665#2" to="gneE126">
		<stop busStop="431" until="00:00:00"/>
		<stop busStop="468" until="00:02:48"/>
		<stop busStop="490" until="00:05:16"/>
		<stop busStop="1710" until="00:08:00"/>
	</trip>

	<trip id="Link_light_rail_52084529_0" type="rail_urban" depart="00:00:00" from="452336725#5.63" to="170853848#2">
		<stop busStop="501" until="00:00:00"/>
		<stop busStop="623" until="00:03:00"/>
		<stop busStop="99101" until="00:05:00"/>
	</trip>

	<trip id="545_35024735_0" type="bus" depart="00:00:02" from="484863624#1" to="105899961#0">
		<stop busStop="820" until="00:00:12"/>
		<stop busStop="844" until="00:02:00"/>
		<stop busStop="21850" until="00:05:00"/>
	</trip>

	<trip id="3_49194871" type="bus" depart="00:00:05" from="-353690159#4" to="399134509#1">
		<stop busStop="12840" until="00:00:15"/>
		<stop busStop="12880" until="00:02:00"/>
		<stop busStop="12890" until="00:02:53"/>
		<stop busStop="1540" until="00:04:16"/>
		<stop busStop="1550" until="00:05:00"/>
		<stop busStop="538" until="00:06:14"/>
		<stop busStop="558" until="00:08:12"/>
		<stop busStop="575" until="00:10:00"/>
		<stop busStop="600" until="00:12:00"/>
	</trip>

	<trip id="550_44581514_0" type="bus" depart="00:00:07" from="428243311#1" to="462696719#1">
		<stop busStop="360" until="00:00:17"/>
		<stop busStop="375" until="00:01:00"/>
	</trip>

	<trip id="554_35024595_0" type="bus" depart="00:00:15" from="428243144#0" to="gneE372">
		<stop busStop="280" until="00:00:25"/>
		<stop busStop="320" until="00:02:00"/>
		<stop busStop="360" until="00:04:35"/>
		<stop busStop="375" until="00:06:00"/>
		<stop busStop="1480" until="00:08:10"/>
	</trip>

	<trip id="2_49192955_0" type="bus" depart="00:00:24" from="-165042063#11" to="395714915">
		<stop busStop="3152" until="00:00:34"/>
		<stop busStop="3153" until="00:01:30"/>
		<stop busStop="3154" until="00:01:58"/>
		<stop busStop="3155" until="00:03:00"/>
		<stop busStop="3156" until="00:03:52"/>
	</trip>

	<trip id="40_47581375_0" type="bus" depart="00:00:30" from="-460423529#1" to="452330584">
		<stop busStop="430" until="00:00:40"/>
		<stop busStop="480" until="00:04:04"/>
		<stop busStop="500" until="00:05:27"/>
		<stop busStop="515" until="00:07:00"/>
	</trip>

	<trip id="12_49192259_0" type="bus" depart="00:00:35" from="191144466#4" to="6428348#2">
		<stop busStop="1400" until="00:00:45"/>
		<stop busStop="1415" until="00:01:23"/>
		<stop busStop="1420" until="00:02:00"/>
	</trip>

	<trip id="49_49193520_0" type="bus" depart="00:00:35" from="428246433" to="428098983">
		<stop busStop="11180" until="00:00:45"/>
		<stop busStop="11190" until="00:01:47"/>
	</trip>

	<trip id="8_47378564_0" type="bus" depart="00:00:37" from="428087113#0" to="623536799">
		<stop busStop="2260" until="00:00:47"/>
		<stop busStop="2262" until="00:02:03"/>
		<stop busStop="29268" until="00:04:20"/>
		<stop busStop="29270" until="00:06:00"/>
	</trip>

	<trip id="1_49195350" type="bus" depart="00:00:50" from="460421475#1" to="-456673731">
		<stop busStop="2672" until="00:01:00"/>
		<stop busStop="2180" until="00:01:57"/>
		<stop busStop="2200" until="00:03:05"/>
		<stop busStop="2244" until="00:04:49"/>
		<stop busStop="2220" until="00:06:00"/>
	</trip>

	<trip id="4_49194850_0" type="bus" depart="00:00:50" from="370785080#1" to="428342325">
		<stop busStop="1690" until="00:01:00"/>
		<stop busStop="4200" until="00:01:44"/>
		<stop busStop="4220" until="00:02:40"/>
		<stop busStop="4230" until="00:03:27"/>
	</trip>

	<trip id="41_43333550_0" type="bus" depart="00:00:50" from="332223485#1" to="332223485#1">
		<stop busStop="844" until="00:01:00"/>
	</trip>

	<trip id="545_35507162_0" type="bus" depart="00:00:50" from="173554614#0" to="98243675#0">
		<stop busStop="700" until="00:01:00"/>
		<stop busStop="1050" until="00:01:41"/>
		<stop busStop="1051" until="00:02:09"/>
	</trip>

	<trip id="D_Line_49196123" type="bus" depart="00:00:50" from="gneE173" to="428248874#5">
		<stop busStop="1610" until="00:01:00"/>
		<stop busStop="538" until="00:02:12"/>
		<stop busStop="558" until="00:03:28"/>
		<stop busStop="578" until="00:05:00"/>
		<stop busStop="600" until="00:06:40"/>
		<stop busStop="605" until="00:08:14"/>
		<stop busStop="1690" until="00:09:32"/>
		<stop busStop="2330" until="00:12:52"/>
		<stop busStop="2360" until="00:14:57"/>
	</trip>

	<trip id="62_47377362_0" type="bus" depart="00:00:55" from="-532864853#2" to="585843630#4">
		<stop busStop="548" until="00:01:05"/>
		<stop busStop="570" until="00:03:00"/>
		<stop busStop="590" until="00:04:18"/>
		<stop busStop="600" until="00:05:29"/>
		<stop busStop="6220" until="00:07:55"/>
		<stop busStop="6240" until="00:09:08"/>
		<stop busStop="18455" until="00:10:41"/>
	</trip>

	<trip id="36_49194539_0" type="bus" depart="00:01:16" from="gneE177" to="15257627#1">
		<stop busStop="500" until="00:01:26"/>
		<stop busStop="515" until="00:03:26"/>
		<stop busStop="1471" until="00:05:00"/>
		<stop busStop="1480" until="00:05:55"/>
		<stop busStop="1490" until="00:06:34"/>
	</trip>

	<trip id="62_47377333_0" type="bus" depart="00:01:21" from="-621319687#1" to="462696713#3">
		<stop busStop="420" until="00:01:31"/>
		<stop busStop="430" until="00:02:36"/>
		<stop busStop="480" until="00:06:50"/>
		<stop busStop="500" until="00:08:43"/>
		<stop busStop="625" until="00:11:00"/>
	</trip>

	<trip id="150_49788202" type="bus" depart="00:01:33" from="-370826209.583" to="332962230#1">
		<stop busStop="99267" until="00:01:43"/>
		<stop busStop="30635" until="00:02:25"/>
		<stop busStop="620" until="00:04:00"/>
		<stop busStop="640" until="00:05:24"/>
		<stop busStop="660" until="00:06:33"/>
		<stop busStop="690" until="00:08:00"/>
		<stop busStop="1190" until="00:09:23"/>
		<stop busStop="11130" until="00:11:00"/>
	</trip>

	<trip id="12_49192260" type="bus" depart="00:01:50" from="6428348#2" to="395714915">
		<stop busStop="1420" until="00:02:00"/>
		<stop busStop="1890" until="00:03:31"/>
		<stop busStop="1580" until="00:04:00"/>
		<stop busStop="1590" until="00:05:00"/>
		<stop busStop="1300" until="00:07:30"/>
		<stop busStop="13291" until="00:09:00"/>
		<stop busStop="13292" until="00:10:00"/>
		<stop busStop="13293" until="00:11:00"/>
		<stop busStop="3156" until="00:11:52"/>
	</trip>

	<trip id="70_49193919" type="bus" depart="00:01:50" from="gneE173" to="428341107">
		<stop busStop="1610" until="00:02:00"/>
		<stop busStop="538" until="00:03:39"/>
		<stop busStop="558" until="00:05:24"/>
		<stop busStop="575" until="00:07:00"/>
		<stop busStop="880" until="00:09:00"/>
		<stop busStop="900" until="00:11:20"/>
		<stop busStop="10280" until="00:13:00"/>
		<stop busStop="10305" until="00:14:04"/>
	</trip>

	<trip id="4_49194875_0" type="bus" depart="00:02:03" from="532864853#0" to="-460419023#1">
		<stop busStop="480" until="00:02:13"/>
		<stop busStop="1560" until="00:04:00"/>
		<stop busStop="1570" until="00:05:09"/>
		<stop busStop="12900" until="00:07:01"/>
		<stop busStop="12910" until="00:08:00"/>
	</trip>

	<trip id="Link_light_rail_52084382" type="rail_urban" depart="00:02:50" from="164665655#4" to="144691574#6.2193">
		<stop busStop="99260" until="00:03:00"/>
		<stop busStop="621" until="00:05:00"/>
		<stop busStop="532" until="00:08:00"/>
		<stop busStop="565" until="00:10:00"/>
		<stop busStop="1121" until="00:12:00"/>
		<stop busStop="99603" until="00:14:00"/>
	</trip>

	<trip id="41_44185656" type="bus" depart="00:03:50" from="gneE407" to="98243672#0">
		<stop busStop="619" until="00:04:00"/>
		<stop busStop="531" until="00:05:31"/>
		<stop busStop="548" until="00:07:03"/>
		<stop busStop="570" until="00:08:43"/>
		<stop busStop="590" until="00:10:00"/>
		<stop busStop="1040" until="00:10:27"/>
	</trip>

	<trip id="3_49194868" type="bus" depart="00:04:50" from="-456673731" to="-460419023#1">
		<stop busStop="2220" until="00:05:00"/>
		<stop busStop="400" until="00:06:32"/>
		<stop busStop="420" until="00:07:48"/>
		<stop busStop="430" until="00:08:46"/>
		<stop busStop="480" until="00:12:13"/>
		<stop busStop="1560" until="00:14:00"/>
		<stop busStop="1570" until="00:15:09"/>
		<stop busStop="12900" until="00:17:01"/>
		<stop busStop="12910" until="00:18:00"/>
	</trip>

	<trip id="40_47581490" type="bus" depart="00:04:50" from="gneE407" to="422748215#0">
		<stop busStop="619" until="00:05:00"/>
		<stop busStop="531" until="00:06:37"/>
		<stop busStop="548" until="00:08:15"/>
		<stop busStop="570" until="00:10:00"/>
		<stop busStop="590" until="00:11:18"/>
		<stop busStop="600" until="00:12:29"/>
		<stop busStop="18440" until="00:14:21"/>
		<stop busStop="26690" until="00:15:44"/>
		<stop busStop="26715" until="00:17:22"/>
	</trip>

	<trip id="24_47376846" type="bus" depart="00:05:33" from="-22759220#9" to="-456673731">
		<stop busStop="19390" until="00:05:43"/>
		<stop busStop="19410" until="00:06:21"/>
		<stop busStop="19420" until="00:07:04"/>
		<stop busStop="2244" until="00:08:23"/>
		<stop busStop="2220" until="00:09:00"/>
	</trip>

	<trip id="14_49195351" type="bus" depart="00:05:50" from="-456673731" to="15257627#1">
		<stop busStop="2220" until="00:06:00"/>
		<stop busStop="400" until="00:07:51"/>
		<stop busStop="420" until="00:09:22"/>
		<stop busStop="430" until="00:10:31"/>
		<stop busStop="480" until="00:14:19"/>
		<stop busStop="500" until="00:15:52"/>
		<stop busStop="515" until="00:17:38"/>
		<stop busStop="1471" until="00:19:00"/>
		<stop busStop="1480" until="00:20:14"/>
		<stop busStop="1490" until="00:21:08"/>
	</trip>

	<trip id="49_49193582" type="bus" depart="00:05:56" from="-428314461" to="460423550#0">
		<stop busStop="11040" until="00:06:06"/>
		<stop busStop="11050" until="00:07:06"/>
		<stop busStop="11060" until="00:08:11"/>
		<stop busStop="11070" until="00:09:19"/>
		<stop busStop="11080" until="00:10:00"/>
		<stop busStop="11090" until="00:11:14"/>
		<stop busStop="11100" until="00:11:57"/>
		<stop busStop="1085" until="00:14:00"/>
	</trip>

	<trip id="28_47377371" type="bus" depart="00:07:50" from="-456673729#0" to="52840083">
		<stop busStop="30635" until="00:08:00"/>
		<stop busStop="619" until="00:10:00"/>
		<stop busStop="531" until="00:11:18"/>
		<stop busStop="548" until="00:12:36"/>
		<stop busStop="570" until="00:14:00"/>
		<stop busStop="590" until="00:15:59"/>
		<stop busStop="600" until="00:17:47"/>
		<stop busStop="605" until="00:20:00"/>
		<stop busStop="6236" until="00:21:01"/>
		<stop busStop="6237" until="00:21:35"/>
	</trip>

	<trip id="120_47583173" type="bus" depart="00:08:50" from="-621319687#1" to="gneE273">
		<stop busStop="420" until="00:09:00"/>
		<stop busStop="433" until="00:12:00"/>
		<stop busStop="468" until="00:14:08"/>
		<stop busStop="481" until="00:16:00"/>
	</trip>

	<trip id="124_47376827" type="bus" depart="00:08:50" from="-456673731" to="-623761323">
		<stop busStop="2220" until="00:09:00"/>
		<stop busStop="400" until="00:10:40"/>
		<stop busStop="420" until="00:12:03"/>
		<stop busStop="433" until="00:14:00"/>
		<stop busStop="468" until="00:16:04"/>
		<stop busStop="490" until="00:18:25"/>
		<stop busStop="515" until="00:21:00"/>
		<stop busStop="21833" until="00:24:00"/>
	</trip>

	<trip id="32_42599424" type="bus" depart="00:08:50" from="460421475#1" to="263689011#8">
		<stop busStop="2672" until="00:09:00"/>
		<stop busStop="2180" until="00:11:00"/>
	</trip>

	<trip id="E_Line_49194340" type="bus" depart="00:08:50" from="gneE173" to="52840083">
		<stop busStop="1610" until="00:09:00"/>
		<stop busStop="538" until="00:10:30"/>
		<stop busStop="558" until="00:12:05"/>
		<stop busStop="578" until="00:14:00"/>
		<stop busStop="600" until="00:14:41"/>
		<stop busStop="605" until="00:15:20"/>
		<stop busStop="6236" until="00:16:19"/>
		<stop busStop="6237" until="00:16:53"/>
	</trip>

	<trip id="Link_light_rail_52084530" type="rail_urban" depart="00:08:50" from="371527759#0.3598" to="170853848#2">
		<stop busStop="99610" until="00:09:00"/>
		<stop busStop="1108" until="00:11:00"/>
		<stop busStop="455" until="00:13:00"/>
		<stop busStop="501" until="00:15:00"/>
		<stop busStop="623" until="00:18:00"/>
		<stop busStop="99101" until="00:20:00"/>
	</trip>

	<trip id="41_43335688" type="bus" depart="00:09:50" from="679642593#2" to="332223485#1">
		<stop busStop="1215" until="00:10:00"/>
		<stop busStop="480" until="00:13:23"/>
		<stop busStop="500" until="00:14:46"/>
		<stop busStop="1710" until="00:16:18"/>
		<stop busStop="844" until="00:19:00"/>
	</trip>

	<trip id="60_47580696" type="bus" depart="00:10:50" from="158882558#0" to="425646004#0">
		<stop busStop="11191" until="00:11:00"/>
		<stop busStop="11040" until="00:11:50"/>
		<stop busStop="11050" until="00:12:49"/>
		<stop busStop="11060" until="00:13:53"/>
		<stop busStop="11070" until="00:15:00"/>
		<stop busStop="41980" until="00:16:08"/>
		<stop busStop="41982" until="00:16:56"/>
		<stop busStop="13283" until="00:18:38"/>
		<stop busStop="13284" until="00:19:56"/>
		<stop busStop="41990" until="00:21:20"/>
		<stop busStop="42000" until="00:22:12"/>
		<stop busStop="12910" until="00:23:00"/>
		<stop busStop="42010" until="00:23:40"/>
		<stop busStop="27500" until="00:25:12"/>
	</trip>

	<trip id="11_47581129" type="bus" depart="00:11:50" from="-6415868#6" to="460423550#0">
		<stop busStop="11080" until="00:12:00"/>
		<stop busStop="11090" until="00:13:14"/>
		<stop busStop="11100" until="00:13:57"/>
		<stop busStop="1085" until="00:16:00"/>
	</trip>

	<trip id="2_49192918" type="bus" depart="00:11:50" from="337673342#2" to="465971496">
		<stop busStop="3032" until="00:12:00"/>
		<stop busStop="3033" until="00:12:41"/>
		<stop busStop="3034" until="00:13:40"/>
		<stop busStop="3035" until="00:14:21"/>
		<stop busStop="3036" until="00:15:03"/>
		<stop busStop="3037" until="00:16:00"/>
	</trip>

	<trip id="550_44581319" type="bus" depart="00:11:50" from="428230590" to="332962230#1">
		<stop busStop="620" until="00:12:00"/>
		<stop busStop="628" until="00:12:59"/>
		<stop busStop="648" until="00:14:25"/>
		<stop busStop="670" until="00:15:57"/>
		<stop busStop="690" until="00:17:05"/>
		<stop busStop="1190" until="00:17:58"/>
		<stop busStop="11130" until="00:19:00"/>
	</trip>

	<trip id="26_47377263" type="bus" depart="00:13:08" from="367069126" to="458058813#1">
		<stop busStop="6176" until="00:13:18"/>
		<stop busStop="7430" until="00:14:00"/>
	</trip>

	<trip id="C_Line_49196484" type="bus" depart="00:13:43" from="-428341305" to="gneE273">
		<stop busStop="26641" until="00:13:53"/>
		<stop busStop="26645" until="00:15:00"/>
		<stop busStop="26665" until="00:16:34"/>
		<stop busStop="420" until="00:19:30"/>
		<stop busStop="431" until="00:21:00"/>
		<stop busStop="468" until="00:22:47"/>
		<stop busStop="481" until="00:24:00"/>
	</trip>

	<trip id="2_49192956" type="bus" depart="00:13:50" from="460421475#1" to="395714915">
		<stop busStop="2672" until="00:14:00"/>
		<stop busStop="2180" until="00:14:57"/>
		<stop busStop="2200" until="00:16:05"/>
		<stop busStop="2244" until="00:17:49"/>
		<stop busStop="2220" until="00:19:00"/>
		<stop busStop="400" until="00:20:51"/>
		<stop busStop="420" until="00:22:22"/>
		<stop busStop="430" until="00:23:31"/>
		<stop busStop="1270" until="00:27:00"/>
		<stop busStop="1280" until="00:27:56"/>
		<stop busStop="3150" until="00:29:00"/>
		<stop busStop="3151" until="00:29:29"/>
		<stop busStop="3152" until="00:30:10"/>
		<stop busStop="3153" until="00:30:53"/>
		<stop busStop="3154" until="00:31:13"/>
		<stop busStop="3155" until="00:32:00"/>
		<stop busStop="3156" until="00:32:52"/>
	</trip>

	<trip id="32_42019731" type="bus" depart="00:14:50" from="6394468#2" to="6394468#2">
		<stop busStop="2361" until="00:15:00"/>
	</trip>

	<trip id="5_47580320" type="bus" depart="00:14:50" from="367069126" to="458058813#1">
		<stop busStop="6176" until="00:15:00"/>
		<stop busStop="7430" until="00:16:00"/>
	</trip>

	<trip id="4_49194869" type="bus" depart="00:15:05" from="-353690159#4" to="399134509#1">
		<stop busStop="12840" until="00:15:15"/>
		<stop busStop="12880" until="00:17:00"/>
		<stop busStop="12890" until="00:17:53"/>
		<stop busStop="1540" until="00:19:16"/>
		<stop busStop="1550" until="00:20:00"/>
		<stop busStop="538" until="00:21:14"/>
		<stop busStop="558" until="00:23:12"/>
		<stop busStop="575" until="00:25:00"/>
		<stop busStop="600" until="00:27:00"/>
	</trip>

	<trip id="C_Line_49196406" type="bus" depart="00:15:30" from="gneE487" to="422748215#0">
		<stop busStop="1565" until="00:15:40"/>
		<stop busStop="539" until="00:16:25"/>
		<stop busStop="558" until="00:17:00"/>
		<stop busStop="578" until="00:18:51"/>
		<stop busStop="600" until="00:20:24"/>
		<stop busStop="18440" until="00:22:17"/>
		<stop busStop="26690" until="00:23:42"/>
		<stop busStop="26715" until="00:25:20"/>
	</trip>

	<trip id="13_49192810" type="bus" depart="00:15:50" from="465971496" to="428248874#5">
		<stop busStop="3037" until="00:16:00"/>
		<stop busStop="1260" until="00:16:35"/>
		<stop busStop="1250" until="00:18:00"/>
		<stop busStop="575" until="00:20:00"/>
		<stop busStop="600" until="00:22:03"/>
		<stop busStop="605" until="00:23:34"/>
		<stop busStop="1690" until="00:24:48"/>
		<stop busStop="2320" until="00:26:49"/>
		<stop busStop="2330" until="00:28:00"/>
		<stop busStop="2360" until="00:28:53"/>
	</trip>

	<trip id="21_47580489" type="bus" depart="00:15:50" from="458058813#1" to="-427914314">
		<stop busStop="7430" until="00:16:00"/>
		<stop busStop="400" until="00:17:57"/>
		<stop busStop="420" until="00:19:23"/>
		<stop busStop="431" until="00:21:00"/>
		<stop busStop="468" until="00:23:06"/>
		<stop busStop="490" until="00:24:57"/>
		<stop busStop="515" until="00:27:00"/>
		<stop busStop="15201" until="00:31:00"/>
	</trip>

	<trip id="E_Line_49194464" type="bus" depart="00:15:56" from="367069126" to="452330584">
		<stop busStop="6176" until="00:16:06"/>
		<stop busStop="7430" until="00:16:54"/>
		<stop busStop="400" until="00:17:43"/>
		<stop busStop="420" until="00:18:19"/>
		<stop busStop="431" until="00:19:00"/>
		<stop busStop="468" until="00:21:06"/>
		<stop busStop="490" until="00:22:57"/>
		<stop busStop="515" until="00:25:00"/>
	</trip>

	<trip id="4_49194876" type="bus" depart="00:17:27" from="-428342325" to="532864853#0">
		<stop busStop="4050" until="00:17:37"/>
		<stop busStop="4070" until="00:18:24"/>
		<stop busStop="4080" until="00:19:05"/>
		<stop busStop="2220" until="00:20:00"/>
		<stop busStop="400" until="00:21:32"/>
		<stop busStop="420" until="00:22:48"/>
		<stop busStop="430" until="00:23:46"/>
		<stop busStop="480" until="00:27:39"/>
	</trip>

	<trip id="132_47376283" type="bus" depart="00:17:50" from="-456673729#0" to="-456673729#0">
		<stop busStop="30635" until="00:18:00"/>
	</trip>

	<trip id="26_47377298" type="bus" depart="00:17:50" from="-456673729#0" to="52840083">
		<stop busStop="30635" until="00:18:00"/>
		<stop busStop="619" until="00:20:00"/>
		<stop busStop="531" until="00:21:37"/>
		<stop busStop="548" until="00:23:15"/>
		<stop busStop="570" until="00:25:00"/>
		<stop busStop="590" until="00:26:39"/>
		<stop busStop="600" until="00:28:09"/>
		<stop busStop="605" until="00:30:00"/>
		<stop busStop="6236" until="00:30:53"/>
		<stop busStop="6237" until="00:31:23"/>
	</trip>

	<trip id="Link_light_rail_52084375" type="rail_urban" depart="00:17:50" from="164665655#4" to="144691574#6.2193">
		<stop busStop="99260" until="00:18:00"/>
		<stop busStop="621" until="00:20:00"/>
		<stop busStop="532" until="00:23:00"/>
		<stop busStop="565" until="00:25:00"/>
		<stop busStop="1121" until="00:27:00"/>
		<stop busStop="99603" until="00:29:00"/>
	</trip>

	<trip id="70_49193937" type="bus" depart="00:17:54" from="-393047813#0" to="-460423529#1">
		<stop busStop="10210" until="00:18:04"/>
		<stop busStop="10225" until="00:19:00"/>
		<stop busStop="10240" until="00:20:16"/>
		<stop busStop="940" until="00:21:19"/>
		<stop busStop="950" until="00:21:58"/>
		<stop busStop="430" until="00:23:49"/>
	</trip>

	<trip id="70_49708664" type="bus" depart="00:18:54" from="-393047813#0" to="452330584">
		<stop busStop="10210" until="00:19:04"/>
		<stop busStop="10225" until="00:20:00"/>
		<stop busStop="10240" until="00:21:16"/>
		<stop busStop="940" until="00:22:19"/>
		<stop busStop="950" until="00:22:58"/>
		<stop busStop="430" until="00:24:49"/>
		<stop busStop="480" until="00:28:39"/>
		<stop busStop="500" until="00:30:26"/>
		<stop busStop="515" until="00:32:26"/>
	</trip>

	<trip id="36_49192511" type="bus" depart="00:19:07" from="gneE376" to="532243339#0">
		<stop busStop="1500" until="00:19:17"/>
		<stop busStop="1510" until="00:20:11"/>
		<stop busStop="1530" until="00:21:00"/>
		<stop busStop="1610" until="00:22:43"/>
		<stop busStop="538" until="00:24:27"/>
		<stop busStop="558" until="00:26:19"/>
		<stop busStop="575" until="00:28:00"/>
	</trip>

	<trip id="D_Line_49196146" type="bus" depart="00:20:50" from="460421475#1" to="gneE126">
		<stop busStop="2672" until="00:21:00"/>
		<stop busStop="2200" until="00:23:00"/>
		<stop busStop="2220" until="00:25:48"/>
		<stop busStop="400" until="00:27:19"/>
		<stop busStop="420" until="00:28:35"/>
		<stop busStop="431" until="00:30:00"/>
		<stop busStop="468" until="00:32:48"/>
		<stop busStop="490" until="00:35:16"/>
		<stop busStop="1710" until="00:38:00"/>
	</trip>

	<trip id="13_49194877" type="bus" depart="00:21:50" from="460421475#1" to="-456673731">
		<stop busStop="2672" until="00:22:00"/>
		<stop busStop="2180" until="00:22:46"/>
		<stop busStop="2200" until="00:23:40"/>
		<stop busStop="2244" until="00:25:03"/>
		<stop busStop="2220" until="00:26:00"/>
	</trip>

	<trip id="8_47378565" type="bus" depart="00:21:50" from="460421475#1" to="623536799">
		<stop busStop="2672" until="00:22:00"/>
		<stop busStop="2180" until="00:22:53"/>
		<stop busStop="2200" until="00:23:56"/>
		<stop busStop="2244" until="00:25:32"/>
		<stop busStop="2245" until="00:26:34"/>
		<stop busStop="2247" until="00:27:18"/>
		<stop busStop="2250" until="00:28:00"/>
		<stop busStop="2255" until="00:29:30"/>
		<stop busStop="2260" until="00:30:47"/>
		<stop busStop="2262" until="00:32:03"/>
		<stop busStop="29268" until="00:34:20"/>
		<stop busStop="29270" until="00:36:00"/>
	</trip>

	<trip id="8_47378568" type="bus" depart="00:22:05" from="-337668916#3" to="428248874#5">
		<stop busStop="29301" until="00:22:15"/>
		<stop busStop="29262" until="00:23:00"/>
		<stop busStop="29266" until="00:24:39"/>
		<stop busStop="2275" until="00:25:15"/>
		<stop busStop="2285" until="00:27:35"/>
		<stop busStop="2291" until="00:29:03"/>
		<stop busStop="2295" until="00:30:00"/>
		<stop busStop="2297" until="00:31:13"/>
		<stop busStop="2300" until="00:32:12"/>
		<stop busStop="20830" until="00:33:19"/>
		<stop busStop="2330" until="00:35:19"/>
		<stop busStop="2360" until="00:37:46"/>
	</trip>

	<trip id="7_49193447" type="bus" depart="00:22:49" from="532864853#0" to="15257627#1">
		<stop busStop="480" until="00:22:59"/>
		<stop busStop="500" until="00:24:59"/>
		<stop busStop="515" until="00:27:14"/>
		<stop busStop="1471" until="00:29:00"/>
		<stop busStop="1480" until="00:29:55"/>
		<stop busStop="1490" until="00:30:36"/>
	</trip>

	<trip id="40_47581373" type="bus" depart="00:23:13" from="-428341305" to="452330584">
		<stop busStop="26641" until="00:23:23"/>
		<stop busStop="26645" until="00:24:00"/>
		<stop busStop="26665" until="00:25:37"/>
		<stop busStop="420" until="00:28:38"/>
		<stop busStop="430" until="00:29:40"/>
		<stop busStop="480" until="00:33:04"/>
		<stop busStop="500" until="00:34:27"/>
		<stop busStop="515" until="00:36:00"/>
	</trip>

	<trip id="Link_light_rail_52084531" type="rail_urban" depart="00:23:50" from="371527759#0.3598" to="170853848#2">
		<stop busStop="99610" until="00:24:00"/>
		<stop busStop="1108" until="00:26:00"/>
		<stop busStop="455" until="00:28:00"/>
		<stop busStop="501" until="00:30:00"/>
		<stop busStop="623" until="00:33:00"/>
		<stop busStop="99101" until="00:35:00"/>
	</trip>

	<trip id="28_47377175" type="bus" depart="00:24:08" from="367069126" to="458058813#1">
		<stop busStop="6176" until="00:24:18"/>
		<stop busStop="7430" until="00:25:00"/>
	</trip>

	<trip id="150_49788018" type="bus" depart="00:24:50" from="679642593#2" to="-428301128#1">
		<stop busStop="1215" until="00:25:00"/>
		<stop busStop="1230" until="00:25:35"/>
		<stop busStop="340" until="00:28:00"/>
		<stop busStop="361" until="00:29:09"/>
		<stop busStop="390" until="00:31:00"/>
	</trip>

	<trip id="49_49193710" type="bus" depart="00:24:50" from="465799092#2" to="428098983">
		<stop busStop="1180" until="00:25:00"/>
		<stop busStop="1000" until="00:28:24"/>
		<stop busStop="11140" until="00:31:46"/>
		<stop busStop="11150" until="00:33:00"/>
		<stop busStop="11180" until="00:35:45"/>
		<stop busStop="11190" until="00:36:47"/>
	</trip>

	<trip id="62_47377334" type="bus" depart="00:24:50" from="-585843630#1" to="462696713#3">
		<stop busStop="18390" until="00:25:00"/>
		<stop busStop="18402" until="00:26:41"/>
		<stop busStop="6190" until="00:27:57"/>
		<stop busStop="420" until="00:30:31"/>
		<stop busStop="430" until="00:31:36"/>
		<stop busStop="480" until="00:35:50"/>
		<stop busStop="500" until="00:37:43"/>
		<stop busStop="625" until="00:40:00"/>
	</trip>

	<trip id="62_47377363" type="bus" depart="00:26:50" from="gneE402" to="585843630#4">
		<stop busStop="1530" until="00:27:00"/>
		<stop busStop="531" until="00:29:19"/>
		<stop busStop="548" until="00:31:05"/>
		<stop busStop="570" until="00:33:00"/>
		<stop busStop="590" until="00:34:09"/>
		<stop busStop="600" until="00:35:13"/>
		<stop busStop="6220" until="00:37:22"/>
		<stop busStop="6240" until="00:38:27"/>
		<stop busStop="18455" until="00:39:50"/>
	</trip>

	<trip id="36_49193963" type="bus" depart="00:27:29" from="532864853#0" to="15257627#1">
		<stop busStop="480" until="00:27:39"/>
		<stop busStop="500" until="00:29:26"/>
		<stop busStop="515" until="00:31:26"/>
		<stop busStop="1471" until="00:33:00"/>
		<stop busStop="1480" until="00:33:55"/>
		<stop busStop="1490" until="00:34:34"/>
	</trip>

	<trip id="7_49193347" type="bus" depart="00:29:35" from="gneE376" to="gneE376">
		<stop busStop="1500" until="00:29:45"/>
	</trip>

	<trip id="106_47580714" type="bus" depart="00:29:50" from="gneE401" to="15257627#1">
		<stop busStop="1471" until="00:30:00"/>
		<stop busStop="1480" until="00:30:55"/>
		<stop busStop="1490" until="00:31:36"/>
	</trip>

	<trip id="3_49194870" type="bus" depart="00:30:05" from="-353690159#4" to="399134509#1">
		<stop busStop="12840" until="00:30:15"/>
		<stop busStop="12880" until="00:32:00"/>
		<stop busStop="12890" until="00:32:53"/>
		<stop busStop="1540" until="00:34:16"/>
		<stop busStop="1550" until="00:35:00"/>
		<stop busStop="538" until="00:36:14"/>
		<stop busStop="558" until="00:38:12"/>
		<stop busStop="575" until="00:40:00"/>