<additional>
	<edgeData id="2" file="edge_data_output.xml" freq="3600"/>
</additional>