<additional>
	<tlLogic id="gneJ355" type="actuated" programID="2" offset="6">
		<param key="detector-gap" value="2.0"/>
		<param key="file" value="NULL"/>
		<param key="freq" value="300"/>
		<param key="max-gap" value="3.0"/>
		<param key="passing-time" value="2.0"/>
		<param key="show-detectors" value="false"/>
		<param key="vTypes" value=""/>
		<phase duration="7.0" maxDur="38.5" minDur="7.0" name="0" next="2" state="GGGrrrGGrG"/>
		<phase duration="7.0" maxDur="20.5" minDur="7.0" name="0" next="4" state="rrrgGGrrGr"/>
		<phase duration="3.5" name="0" next="3" state="yyyrrryyry"/>
		<phase duration="3.0" name="0" next="1" state="rrrrrrrrrr"/>
		<phase duration="3.5" name="0" next="5" state="rrryyyrryr"/>
		<phase duration="1.0" name="0" next="0" state="rrrrrrrrrr"/>
		<param key="linkMaxDur:0" value="38.5"/>
		<param key="linkMinDur:0" value="7.0"/>
	</tlLogic>
	<tlLogic id="53073086" type="static" programID="2" offset="50">
		<phase duration="58.5" maxDur="58.5" minDur="7.0" name="0" next="3" state="GGGrrrGggr"/>
		<phase duration="12.5" maxDur="12.5" minDur="5.0" name="0" next="4" state="GGGrrrrrrG"/>
		<phase duration="45.5" maxDur="45.5" minDur="7.0" name="0" next="6" state="rrrGGGrrrr"/>
		<phase duration="3.5" name="0" next="1" state="GGGrrryyyr"/>
		<phase duration="3.5" name="0" next="5" state="yyyrrrrrry"/>
		<phase duration="1.0" name="0" next="2" state="rrrrrrrrrr"/>
		<phase duration="3.5" name="0" next="7" state="rrryyyrrrr"/>
		<phase duration="1.0" name="0" next="0" state="rrrrrrrrrr"/>
		<param key="linkMaxDur:7" value="58.5"/>
		<param key="linkMinDur:7" value="7.0"/>
		<param key="linkMaxDur:0" value="85.5"/>
		<param key="linkMinDur:0" value="7.0"/>
	</tlLogic>
	<tlLogic id="4163983439" type="actuated" programID="2" offset="59">
		<param key="detector-gap" value="2.0"/>
		<param key="file" value="NULL"/>
		<param key="freq" value="300"/>
		<param key="max-gap" value="3.0"/>
		<param key="passing-time" value="2.0"/>
		<param key="show-detectors" value="false"/>
		<param key="vTypes" value=""/>
		<phase duration="7.0" maxDur="52.5" minDur="7.0" name="0" next="2" state="sgGGgsgGGr"/>
		<phase duration="7.0" maxDur="19.0" minDur="7.0" name="0" next="4" state="srrrrsrrrG"/>
		<phase duration="3.5" name="0" next="3" state="syyyysyyyr"/>
		<phase duration="1.0" name="0" next="1" state="rrrrrrrrrr"/>
		<phase duration="3.0" name="0" next="5" state="srrrrsrrry"/>
		<phase duration="1.0" name="0" next="0" state="rrrrrrrrrr"/>
		<param key="linkMaxDur:2" value="52.5"/>
		<param key="linkMinDur:2" value="7.0"/>
		<param key="linkMaxDur:9" value="19.0"/>
		<param key="linkMinDur:9" value="7.0"/>
	</tlLogic>
	<tlLogic id="53189617" type="actuated" programID="2" offset="23">
		<param key="detector-gap" value="2.0"/>
		<param key="file" value="NULL"/>
		<param key="freq" value="300"/>
		<param key="max-gap" value="3.0"/>
		<param key="passing-time" value="2.0"/>
		<param key="show-detectors" value="false"/>
		<param key="vTypes" value=""/>
		<phase duration="7.0" maxDur="41.5" minDur="7.0" name="0" next="3" state="GGrrrgGGrGG"/>
		<phase duration="5.0" maxDur="6.5" minDur="5.0" name="0" next="4" state="GGGrrrrrrrr"/>
		<phase duration="7.0" maxDur="19.0" minDur="7.0" name="0" next="6" state="rrrggrrrrrr"/>
		<phase duration="3.5" name="0" next="1" state="GGrrryyyryy"/>
		<phase duration="3.5" name="0" next="5" state="yyyrrrrrrrr"/>
		<phase duration="1.0" name="0" next="2" state="rrrrrrrrrrr"/>
		<phase duration="3.0" name="0" next="7" state="rrryyrrrrrr"/>
		<phase duration="1.0" name="0" next="0" state="rrrrrrrrrrr"/>
		<param key="linkMaxDur:0" value="41.5"/>
		<param key="linkMinDur:0" value="5.0"/>
		<param key="linkMaxDur:1" value="6.5"/>
		<param key="linkMinDur:1" value="5.0"/>
	</tlLogic>
	<tlLogic id="53146386" type="actuated" programID="2" offset="0">
		<param key="detector-gap" value="2.0"/>
		<param key="file" value="NULL"/>
		<param key="freq" value="300"/>
		<param key="max-gap" value="3.0"/>
		<param key="passing-time" value="2.0"/>
		<param key="show-detectors" value="false"/>
		<param key="vTypes" value=""/>
		<phase duration="7.0" maxDur="23.5" minDur="7.0" name="0" next="3" state="rrrrrrrrrrgGGgGrGr"/>
		<phase duration="7.0" maxDur="22.5" minDur="7.0" name="0" next="5" state="gGGGGrrrrrrrrrrrrG"/>
		<phase duration="7.0" maxDur="20.5" minDur="7.0" name="0" next="7" state="rrrrrgGGGGrrrrrGrr"/>
		<phase duration="3.5" name="0" next="4" state="rrrrrrrrrryyyyyryr"/>
		<phase duration="1.0" name="0" next="1" state="rrrrrrrrrrrrrrrrrr"/>
		<phase duration="3.5" name="0" next="6" state="yyyyyrrrrrrrrrrrry"/>
		<phase duration="1.0" name="0" next="2" state="rrrrrrrrrrrrrrrrrr"/>
		<phase duration="3.5" name="0" next="8" state="rrrrryyyyyrrrrryrr"/>
		<phase duration="1.0" name="0" next="0" state="rrrrrrrrrrrrrrrrrr"/>
		<param key="linkMaxDur:11" value="23.5"/>
		<param key="linkMinDur:11" value="7.0"/>
		<param key="linkMaxDur:1" value="22.5"/>
		<param key="linkMinDur:1" value="7.0"/>
		<param key="linkMaxDur:6" value="20.5"/>
		<param key="linkMinDur:6" value="7.0"/>
	</tlLogic>
	<tlLogic id="53155734" type="actuated" programID="2" offset="23">
		<param key="detector-gap" value="2.0"/>
		<param key="file" value="NULL"/>
		<param key="freq" value="300"/>
		<param key="max-gap" value="3.0"/>
		<param key="passing-time" value="2.0"/>
		<param key="show-detectors" value="false"/>
		<param key="vTypes" value=""/>
		<phase duration="7.0" maxDur="21.5" minDur="7.0" name="0" next="2" state="rrgGGGGgGrr"/>
		<phase duration="7.0" maxDur="16.0" minDur="7.0" name="0" next="4" state="gGrrrrrrrrG"/>
		<phase duration="3.5" name="0" next="3" state="rryyyyyyyrr"/>
		<phase duration="1.0" name="0" next="1" state="rrrrrrrrrrr"/>
		<phase duration="5.0" name="0" next="5" state="yyrrrrrrrry"/>
		<phase duration="3.0" name="0" next="0" state="rrrrrrrrrrr"/>
		<param key="linkMaxDur:3" value="21.5"/>
		<param key="linkMinDur:3" value="7.0"/>
		<param key="linkMaxDur:1" value="16.0"/>
		<param key="linkMinDur:1" value="7.0"/>
	</tlLogic>
	<tlLogic id="53091442" type="actuated" programID="2" offset="48">
		<param key="detector-gap" value="2.0"/>
		<param key="file" value="NULL"/>
		<param key="freq" value="300"/>
		<param key="max-gap" value="3.0"/>
		<param key="passing-time" value="2.0"/>
		<param key="show-detectors" value="false"/>
		<param key="vTypes" value=""/>
		<phase duration="7.0" maxDur="21.5" minDur="7.0" name="0" next="2" state="rrgGGGGgGrr"/>
		<phase duration="7.0" maxDur="15.5" minDur="7.0" name="0" next="4" state="ggrrrrrrrGG"/>
		<phase duration="3.5" name="0" next="3" state="rryyyyyyyrr"/>
		<phase duration="1.0" name="0" next="1" state="rrrrrrrrrrr"/>
		<phase duration="5.0" name="0" next="5" state="yyrrrrrrryy"/>
		<phase duration="3.5" name="0" next="0" state="rrrrrrrrrrr"/>
		<param key="linkMaxDur:3" value="21.5"/>
		<param key="linkMinDur:3" value="7.0"/>
	</tlLogic>
	<tlLogic id="53247506" type="actuated" programID="2" offset="49">
		<param key="detector-gap" value="2.0"/>
		<param key="file" value="NULL"/>
		<param key="freq" value="300"/>
		<param key="max-gap" value="3.0"/>
		<param key="passing-time" value="2.0"/>
		<param key="show-detectors" value="false"/>
		<param key="vTypes" value=""/>
		<phase duration="7.0" maxDur="21.5" minDur="7.0" name="0" next="2" state="rrrgGGGrrrrgGGgGrGr"/>
		<phase duration="7.0" maxDur="15.5" minDur="7.0" name="0" next="4" state="gGgrrrrgGGgrrrrrGrG"/>
		<phase duration="3.5" name="0" next="3" state="rrryyyyrrrryyyyyryr"/>
		<phase duration="1.0" name="0" next="1" state="rrrrrrrrrrrrrrrrrrr"/>
		<phase duration="5.0" name="0" next="5" state="yyyrrrryyyyrrrrryry"/>
		<phase duration="3.5" name="0" next="0" state="rrrrrrrrrrrrrrrrrrr"/>
		<param key="linkMaxDur:4" value="21.5"/>
		<param key="linkMinDur:4" value="7.0"/>
		<param key="linkMaxDur:1" value="15.5"/>
		<param key="linkMinDur:1" value="7.0"/>
	</tlLogic>
	<tlLogic id="gneJ234" type="actuated" programID="2" offset="20">
		<param key="detector-gap" value="2.0"/>
		<param key="file" value="NULL"/>
		<param key="freq" value="300"/>
		<param key="max-gap" value="3.0"/>
		<param key="passing-time" value="2.0"/>
		<param key="show-detectors" value="false"/>
		<param key="vTypes" value=""/>
		<phase duration="7.0" maxDur="25.5" minDur="7.0" name="0" next="2" state="GGGGr"/>
		<phase duration="7.0" maxDur="17.0" minDur="7.0" name="0" next="4" state="rrrrG"/>
		<phase duration="3.5" name="0" next="3" state="yyyyr"/>
		<phase duration="1.0" name="0" next="1" state="rrrrr"/>
		<phase duration="3.0" name="0" next="5" state="rrrry"/>
		<phase duration="1.0" name="0" next="0" state="rrrrr"/>
		<param key="linkMaxDur:0" value="25.5"/>
		<param key="linkMinDur:0" value="7.0"/>
		<param key="linkMaxDur:4" value="17.0"/>
		<param key="linkMinDur:4" value="7.0"/>
	</tlLogic>
	<tlLogic id="2476726095" type="actuated" programID="2" offset="19">
		<param key="detector-gap" value="2.0"/>
		<param key="file" value="NULL"/>
		<param key="freq" value="300"/>
		<param key="max-gap" value="3.0"/>
		<param key="passing-time" value="2.0"/>
		<param key="show-detectors" value="false"/>
		<param key="vTypes" value=""/>
		<phase duration="7.0" maxDur="24.5" minDur="7.0" name="0" next="2" state="sgGGGGr"/>
		<phase duration="7.0" maxDur="18.0" minDur="7.0" name="0" next="4" state="srrrrrG"/>
		<phase duration="3.5" name="0" next="3" state="syyyyyr"/>
		<phase duration="1.0" name="0" next="1" state="rrrrrrr"/>
		<phase duration="3.0" name="0" next="5" state="srrrrry"/>
		<phase duration="1.0" name="0" next="0" state="rrrrrrr"/>
		<param key="linkMaxDur:2" value="24.5"/>
		<param key="linkMinDur:2" value="7.0"/>
		<param key="linkMaxDur:6" value="18.0"/>
		<param key="linkMinDur:6" value="7.0"/>
	</tlLogic>
	<tlLogic id="53036746" type="actuated" programID="2" offset="19">
		<param key="detector-gap" value="2.0"/>
		<param key="file" value="NULL"/>
		<param key="freq" value="300"/>
		<param key="max-gap" value="3.0"/>
		<param key="passing-time" value="2.0"/>
		<param key="show-detectors" value="false"/>
		<param key="vTypes" value=""/>
		<phase duration="7.0" maxDur="24.5" minDur="7.0" name="0" next="2" state="sgGGGGr"/>
		<phase duration="7.0" maxDur="18.0" minDur="7.0" name="0" next="4" state="srrrrrG"/>
		<phase duration="3.5" name="0" next="3" state="syyyyyr"/>
		<phase duration="1.0" name="0" next="1" state="rrrrrrr"/>
		<phase duration="3.0" name="0" next="5" state="srrrrry"/>
		<phase duration="1.0" name="0" next="0" state="rrrrrrr"/>
		<param key="linkMaxDur:2" value="24.5"/>
		<param key="linkMinDur:2" value="7.0"/>
		<param key="linkMaxDur:6" value="18.0"/>
		<param key="linkMinDur:6" value="7.0"/>
	</tlLogic>
	<tlLogic id="6005458284" type="actuated" programID="2" offset="73">
		<param key="detector-gap" value="2.0"/>
		<param key="file" value="NULL"/>
		<param key="freq" value="300"/>
		<param key="max-gap" value="3.0"/>
		<param key="passing-time" value="2.0"/>
		<param key="show-detectors" value="false"/>
		<param key="vTypes" value=""/>
		<phase duration="7.0" maxDur="63.5" minDur="7.0" name="0" next="2" state="GrGr"/>
		<phase duration="7.0" maxDur="39.0" minDur="7.0" name="0" next="4" state="rGrG"/>
		<phase duration="3.5" name="0" next="3" state="yryr"/>
		<phase duration="1.0" name="0" next="1" state="rrrr"/>
		<phase duration="3.0" name="0" next="5" state="ryry"/>
		<phase duration="1.0" name="0" next="0" state="rrrr"/>
		<param key="linkMaxDur:0" value="63.5"/>
		<param key="linkMinDur:0" value="7.0"/>
		<param key="linkMaxDur:1" value="39.0"/>
		<param key="linkMinDur:1" value="7.0"/>
		<param key="linkMaxDur:2" value="63.5"/>
		<param key="linkMinDur:2" value="7.0"/>
	</tlLogic>
	<tlLogic id="53155727" type="actuated" programID="2" offset="52">
		<param key="detector-gap" value="2.0"/>
		<param key="file" value="NULL"/>
		<param key="freq" value="300"/>
		<param key="max-gap" value="3.0"/>
		<param key="passing-time" value="2.0"/>
		<param key="show-detectors" value="false"/>
		<param key="vTypes" value=""/>
		<phase duration="7.0" maxDur="75.5" minDur="7.0" name="0" next="2" state="rrrGGGrrrgGgGrGr"/>
		<phase duration="7.0" maxDur="25.5" minDur="7.0" name="0" next="4" state="gGGrrrgGgrrrrGrG"/>
		<phase duration="3.5" name="0" next="3" state="rrryyyrrryyyyryr"/>
		<phase duration="1.0" name="0" next="1" state="rrrrrrrrrrrrrrrr"/>
		<phase duration="3.5" name="0" next="5" state="yyyrrryyyrrrryry"/>
		<phase duration="1.0" name="0" next="0" state="rrrrrrrrrrrrrrrr"/>
		<param key="linkMaxDur:4" value="75.5"/>
		<param key="linkMinDur:4" value="7.0"/>
		<param key="linkMaxDur:1" value="25.5"/>
		<param key="linkMinDur:1" value="7.0"/>
		<param key="linkMaxDur:10" value="75.5"/>
		<param key="linkMinDur:10" value="7.0"/>
	</tlLogic>
	<tlLogic id="53155726" type="actuated" programID="2" offset="40">
		<param key="detector-gap" value="2.0"/>
		<param key="file" value="NULL"/>
		<param key="freq" value="300"/>
		<param key="max-gap" value="3.0"/>
		<param key="passing-time" value="2.0"/>
		<param key="show-detectors" value="false"/>
		<param key="vTypes" value=""/>
		<phase duration="7.0" maxDur="75.5" minDur="7.0" name="0" next="2" state="rrrGGgrrrGGgGGr"/>
		<phase duration="7.0" maxDur="25.5" minDur="7.0" name="0" next="4" state="gGgrrrgGgrrrrrG"/>
		<phase duration="3.5" name="0" next="3" state="rrryyyrrryyyyyr"/>
		<phase duration="1.0" name="0" next="1" state="rrrrrrrrrrrrrrr"/>
		<phase duration="3.5" name="0" next="5" state="yyyrrryyyrrrrry"/>
		<phase duration="1.0" name="0" next="0" state="rrrrrrrrrrrrrrr"/>
		<param key="linkMaxDur:4" value="75.5"/>
		<param key="linkMinDur:4" value="7.0"/>
		<param key="linkMaxDur:1" value="25.5"/>
		<param key="linkMinDur:1" value="7.0"/>
		<param key="linkMaxDur:10" value="75.5"/>
		<param key="linkMinDur:10" value="7.0"/>
	</tlLogic>
	<tlLogic id="53155725" type="actuated" programID="2" offset="41">
		<param key="detector-gap" value="2.0"/>
		<param key="file" value="NULL"/>
		<param key="freq" value="300"/>
		<param key="max-gap" value="3.0"/>
		<param key="passing-time" value="2.0"/>
		<param key="show-detectors" value="false"/>
		<param key="vTypes" value=""/>
		<phase duration="7.0" maxDur="70.5" minDur="7.0" name="0" next="2" state="rrrgGgrrrgGGgGrGr"/>
		<phase duration="7.0" maxDur="31.5" minDur="7.0" name="0" next="4" state="gGgrrrgGgrrrrrGrG"/>
		<phase duration="3.5" name="0" next="3" state="rrryyyrrryyyyyryr"/>
		<phase duration="1.0" name="0" next="1" state="rrrrrrrrrrrrrrrrr"/>
		<phase duration="3.5" name="0" next="5" state="yyyrrryyyrrrrryry"/>
		<phase duration="1.0" name="0" next="0" state="rrrrrrrrrrrrrrrrr"/>
		<param key="linkMaxDur:4" value="70.5"/>
		<param key="linkMinDur:4" value="7.0"/>
		<param key="linkMaxDur:1" value="31.5"/>
		<param key="linkMinDur:1" value="7.0"/>
		<param key="linkMaxDur:10" value="70.5"/>
		<param key="linkMinDur:10" value="7.0"/>
	</tlLogic>
	<tlLogic id="53144256" type="actuated" programID="2" offset="35">
		<param key="detector-gap" value="2.0"/>
		<param key="file" value="NULL"/>
		<param key="freq" value="300"/>
		<param key="max-gap" value="3.0"/>
		<param key="passing-time" value="2.0"/>
		<param key="show-detectors" value="false"/>
		<param key="vTypes" value=""/>
		<phase duration="7.0" maxDur="75.5" minDur="7.0" name="0" next="2" state="gGggGGgrrrr"/>
		<phase duration="7.0" maxDur="26.5" minDur="7.0" name="0" next="4" state="rrrrrrrGGGG"/>
		<phase duration="3.5" name="0" next="3" state="yyyyyyyrrrr"/>
		<phase duration="1.0" name="0" next="1" state="rrrrrrrrrrr"/>
		<phase duration="3.5" name="0" next="5" state="rrrrrrryyyy"/>
		<phase duration="1.0" name="0" next="0" state="rrrrrrrrrrr"/>
		<param key="linkMaxDur:1" value="75.5"/>
		<param key="linkMinDur:1" value="7.0"/>
		<param key="linkMaxDur:7" value="26.5"/>
		<param key="linkMinDur:7" value="7.0"/>
		<param key="linkMaxDur:4" value="75.5"/>
		<param key="linkMinDur:4" value="7.0"/>
	</tlLogic>
	<tlLogic id="53155724" type="actuated" programID="2" offset="41">
		<param key="detector-gap" value="2.0"/>
		<param key="file" value="NULL"/>
		<param key="freq" value="300"/>
		<param key="max-gap" value="3.0"/>
		<param key="passing-time" value="2.0"/>
		<param key="show-detectors" value="false"/>
		<param key="vTypes" value=""/>
		<phase duration="7.0" maxDur="70.5" minDur="7.0" name="0" next="2" state="rrrGGGGrr"/>
		<phase duration="7.0" maxDur="30.5" minDur="7.0" name="0" next="4" state="gGGrrrrrG"/>
		<phase duration="3.5" name="0" next="3" state="rrryyyyrr"/>
		<phase duration="1.0" name="0" next="1" state="rrrrrrrrr"/>
		<phase duration="3.5" name="0" next="5" state="yyyrrrrry"/>
		<phase duration="1.0" name="0" next="0" state="rrrrrrrrr"/>
		<param key="linkMaxDur:3" value="70.5"/>
		<param key="linkMinDur:3" value="7.0"/>
		<param key="linkMaxDur:1" value="30.5"/>
		<param key="linkMinDur:1" value="7.0"/>
		<param key="linkMaxDur:4" value="70.5"/>
		<param key="linkMinDur:4" value="7.0"/>
	</tlLogic>
	<tlLogic id="53155723" type="actuated" programID="2" offset="60">
		<param key="detector-gap" value="2.0"/>
		<param key="file" value="NULL"/>
		<param key="freq" value="300"/>
		<param key="max-gap" value="3.0"/>
		<param key="passing-time" value="2.0"/>
		<param key="show-detectors" value="false"/>
		<param key="vTypes" value=""/>
		<phase duration="7.0" maxDur="45.5" minDur="7.0" name="0" next="2" state="gGrrrGGgGrGr"/>
		<phase duration="7.0" maxDur="55.5" minDur="7.0" name="0" next="3" state="rrgggrrrGGrG"/>
		<phase duration="3.5" name="0" next="1" state="yyrrryyyGryr"/>
		<phase duration="3.5" name="0" next="0" state="rryyyrrrGyry"/>
		<param key="linkMaxDur:1" value="45.5"/>
		<param key="linkMinDur:1" value="7.0"/>
		<param key="linkMaxDur:5" value="45.5"/>
		<param key="linkMinDur:5" value="7.0"/>
		<param key="linkMaxDur:8" value="55.5"/>
		<param key="linkMinDur:8" value="7.0"/>
	</tlLogic>
	<tlLogic id="3916774509" type="actuated" programID="2" offset="16">
		<param key="detector-gap" value="2.0"/>
		<param key="file" value="NULL"/>
		<param key="freq" value="300"/>
		<param key="max-gap" value="3.0"/>
		<param key="passing-time" value="2.0"/>
		<param key="show-detectors" value="false"/>
		<param key="vTypes" value=""/>
		<phase duration="5.0" maxDur="28.5" minDur="5.0" name="0" next="3" state="rgGGrrrgGGrrr"/>
		<phase duration="7.0" maxDur="34.0" minDur="7.0" name="0" next="4" state="rgGrrrrgGGrGr"/>
		<phase duration="7.0" maxDur="35.5" minDur="7.0" name="0" next="6" state="GrrrgGgrrrGrr"/>
		<phase duration="3.5" name="0" next="1" state="rgGyrrrgGGrrr"/>
		<phase duration="3.0" name="0" next="5" state="ryyrrrryyyryr"/>
		<phase duration="1.0" name="0" next="2" state="rrrrrrrrrrrrr"/>
		<phase duration="3.5" name="0" next="7" state="yrrryyyrrryrr"/>
		<phase duration="1.0" name="0" next="0" state="rrrrrrrrrrrrr"/>
		<param key="linkMaxDur:2" value="65.5"/>
		<param key="linkMinDur:2" value="7.0"/>
		<param key="linkMaxDur:5" value="35.5"/>
		<param key="linkMinDur:5" value="7.0"/>
		<param key="linkMaxDur:3" value="28.5"/>
		<param key="linkMinDur:3" value="5.0"/>
		<param key="linkMaxDur:9" value="34.0"/>
		<param key="linkMinDur:9" value="7.0"/>
		<param key="linkMaxDur:0" value="35.5"/>
		<param key="linkMinDur:0" value="7.0"/>
	</tlLogic>
	<tlLogic id="1926509619" type="actuated" programID="2" offset="0">
		<param key="detector-gap" value="2.0"/>
		<param key="file" value="NULL"/>
		<param key="freq" value="300"/>
		<param key="max-gap" value="3.0"/>
		<param key="passing-time" value="2.0"/>
		<param key="show-detectors" value="false"/>
		<param key="vTypes" value=""/>
		<phase duration="5.0" maxDur="25.5" minDur="5.0" name="0" next="1" state="rrrrrrgGGrrrrr"/>
		<phase duration="7.0" maxDur="43.5" minDur="7.0" name="0" next="3" state="gGgrrrgGgrrrrG"/>
		<phase duration="7.0" maxDur="27.5" minDur="7.0" name="0" next="5" state="rrrgGgrrrgGgGr"/>
		<phase duration="3.5" name="0" next="4" state="yyyrrryyyrrrry"/>
		<phase duration="1.0" name="0" next="2" state="rrrrrrrrrrrrrr"/>
		<phase duration="3.5" name="0" next="6" state="rrryyyrrryyyyr"/>
		<phase duration="1.0" name="0" next="0" state="rrrrrrrrrrrrrr"/>
		<param key="linkMaxDur:7" value="73.5"/>
		<param key="linkMinDur:7" value="7.0"/>
		<param key="linkMaxDur:10" value="27.5"/>
		<param key="linkMinDur:10" value="7.0"/>
		<param key="linkMaxDur:8" value="25.5"/>
		<param key="linkMinDur:8" value="5.0"/>
		<param key="linkMaxDur:1" value="43.5"/>
		<param key="linkMinDur:1" value="7.0"/>
		<param key="linkMaxDur:4" value="27.5"/>
		<param key="linkMinDur:4" value="7.0"/>
	</tlLogic>
	<tlLogic id="1565882716" type="actuated" programID="2" offset="11">
		<param key="detector-gap" value="2.0"/>
		<param key="file" value="NULL"/>
		<param key="freq" value="300"/>
		<param key="max-gap" value="3.0"/>
		<param key="passing-time" value="2.0"/>
		<param key="show-detectors" value="false"/>
		<param key="vTypes" value=""/>
		<phase duration="7.0" maxDur="53.5" minDur="7.0" name="0" next="3" state="gGgrrrgGgrrrG"/>
		<phase duration="7.0" maxDur="21.5" minDur="7.0" name="0" next="5" state="rrrgGgrrrrrrr"/>
		<phase duration="7.0" maxDur="21.5" minDur="7.0" name="0" next="7" state="rrrrrrrrrgGgr"/>
		<phase duration="3.5" name="0" next="4" state="yyyrrryyyrrry"/>
		<phase duration="1.0" name="0" next="1" state="rrrrrrrrrrrrr"/>
		<phase duration="3.5" name="0" next="6" state="rrryyyrrrrrrr"/>
		<phase duration="1.0" name="0" next="2" state="rrrrrrrrrrrrr"/>
		<phase duration="3.5" name="0" next="8" state="rrrrrrrrryyyr"/>
		<phase duration="1.0" name="0" next="0" state="rrrrrrrrrrrrr"/>
		<param key="linkMaxDur:1" value="53.5"/>
		<param key="linkMinDur:1" value="7.0"/>
		<param key="linkMaxDur:4" value="21.5"/>
		<param key="linkMinDur:4" value="7.0"/>
		<param key="linkMaxDur:10" value="21.5"/>
		<param key="linkMinDur:10" value="7.0"/>
	</tlLogic>
	<tlLogic id="gneJ359" type="static" programID="2" offset="85">
		<phase duration="55.5" maxDur="55.5" minDur="7.0" name="0" next="2" state="rrrgGGrrrgGGGrrGrr"/>
		<phase duration="25.5" maxDur="25.5" minDur="7.0" name="0" next="4" state="gGgrrrgGgrrrrGGrGG"/>
		<phase duration="3.5" name="0" next="3" state="rrryyyrrryyyyrryrr"/>
		<phase duration="1.0" name="0" next="1" state="rrrrrrrrrrrrrrrrrr"/>
		<phase duration="3.5" name="0" next="5" state="yyyrrryyyrrrryyryy"/>
		<phase duration="1.0" name="0" next="0" state="rrrrrrrrrrrrrrrrrr"/>
		<param key="linkMaxDur:4" value="55.5"/>
		<param key="linkMinDur:4" value="7.0"/>
		<param key="linkMaxDur:1" value="25.5"/>
		<param key="linkMinDur:1" value="7.0"/>
	</tlLogic>
	<tlLogic id="gneJ352" type="static" programID="2" offset="75">
		<phase duration="60.5" maxDur="60.5" minDur="7.0" name="0" next="2" state="rrgGGrrrGGgGrrGrr"/>
		<phase duration="20.5" maxDur="20.5" minDur="7.0" name="0" next="4" state="ggrrrgGgrrrrGGrGG"/>
		<phase duration="3.5" name="0" next="3" state="rryyyrrryyyyrryrr"/>
		<phase duration="1.0" name="0" next="1" state="rrrrrrrrrrrrrrrrr"/>
		<phase duration="3.5" name="0" next="5" state="yyrrryyyrrrryyryy"/>
		<phase duration="1.0" name="0" next="0" state="rrrrrrrrrrrrrrrrr"/>
		<param key="linkMaxDur:3" value="60.5"/>
		<param key="linkMinDur:3" value="7.0"/>
		<param key="linkMaxDur:6" value="20.5"/>
		<param key="linkMinDur:6" value="7.0"/>
	</tlLogic>
	<tlLogic id="2481926130" type="actuated" programID="2" offset="42">
		<param key="detector-gap" value="2.0"/>
		<param key="file" value="NULL"/>
		<param key="freq" value="300"/>
		<param key="max-gap" value="3.0"/>
		<param key="passing-time" value="2.0"/>
		<param key="show-detectors" value="false"/>
		<param key="vTypes" value=""/>
		<phase duration="7.0" maxDur="20.0" minDur="7.0" name="0" next="3" state="rrrgGGGGgrGGrGGr"/>
		<phase duration="5.0" maxDur="19.0" minDur="5.0" name="0" next="4" state="rrrGGGGGgrGrrGGr"/>
		<phase duration="7.0" maxDur="33.5" minDur="7.0" name="0" next="6" state="gGGrrrrrrGrrGrrG"/>
		<phase duration="3.5" name="0" next="1" state="rrrgGGGGgrGyrGGr"/>
		<phase duration="3.5" name="0" next="5" state="rrryyyyyyryrryyr"/>
		<phase duration="2.5" name="0" next="2" state="rrrrrrrrrrrrrrrr"/>
		<phase duration="3.5" name="0" next="7" state="yyyrrrrrryrryrry"/>
		<phase duration="2.0" name="0" next="0" state="rrrrrrrrrrrrrrrr"/>
		<param key="linkMaxDur:4" value="20.0"/>
		<param key="linkMinDur:4" value="7.0"/>
		<param key="linkMaxDur:1" value="33.5"/>
		<param key="linkMinDur:1" value="7.0"/>
		<param key="linkMaxDur:3" value="19.0"/>
		<param key="linkMinDur:3" value="5.0"/>
	</tlLogic>
	<tlLogic id="gneJ356" type="static" programID="2" offset="76">
		<phase duration="58.5" maxDur="58.5" minDur="7.0" name="0" next="2" state="gGGrrrgGGgrrrrrGrrG"/>
		<phase duration="22.5" maxDur="22.5" minDur="7.0" name="0" next="4" state="rrrgGgrrrrgGgGGrGGr"/>
		<phase duration="3.5" name="0" next="3" state="yyyrrryyyyrrrrryrry"/>
		<phase duration="1.0" name="0" next="1" state="rrrrrrrrrrrrrrrrrrr"/>
		<phase duration="3.5" name="0" next="5" state="rrryyyrrrryyyyyryyr"/>
		<phase duration="1.0" name="0" next="0" state="rrrrrrrrrrrrrrrrrrr"/>
		<param key="linkMaxDur:1" value="58.5"/>
		<param key="linkMinDur:1" value="7.0"/>
		<param key="linkMaxDur:4" value="22.5"/>
		<param key="linkMinDur:4" value="7.0"/>
	</tlLogic>
	<tlLogic id="53144731" type="static" programID="2" offset="85">
		<phase duration="55.5" maxDur="55.5" minDur="7.0" name="0" next="2" state="gGGGGgrrr"/>
		<phase duration="27.0" maxDur="27.0" minDur="7.0" name="0" next="4" state="rrrrrrGGG"/>
		<phase duration="3.5" name="0" next="3" state="yyyyyyrrr"/>
		<phase duration="1.0" name="0" next="1" state="rrrrrrrrr"/>
		<phase duration="3.0" name="0" next="5" state="rrrrrryyy"/>
		<phase duration="1.0" name="0" next="0" state="rrrrrrrrr"/>
		<param key="linkMaxDur:1" value="55.5"/>
		<param key="linkMinDur:1" value="7.0"/>
		<param key="linkMaxDur:6" value="27.0"/>
		<param key="linkMinDur:6" value="7.0"/>
	</tlLogic>
	<tlLogic id="53142127" type="actuated" programID="2" offset="5">
		<param key="detector-gap" value="2.0"/>
		<param key="file" value="NULL"/>
		<param key="freq" value="300"/>
		<param key="max-gap" value="3.0"/>
		<param key="passing-time" value="2.0"/>
		<param key="show-detectors" value="false"/>
		<param key="vTypes" value=""/>
		<phase duration="7.0" maxDur="40.5" minDur="7.0" name="0" next="4" state="rrrrrrrGGggGGGrGr"/>
		<phase duration="7.0" maxDur="17.5" minDur="7.0" name="0" next="6" state="gGgGgGgrrrrrrrGrG"/>
		<phase duration="5.0" maxDur="6.5" minDur="5.0" name="0" next="7" state="gGgGGGGrrrrrrrrrG"/>
		<phase duration="5.0" maxDur="7.5" minDur="5.0" name="0" next="8" state="rrrrrrrrrrrrrGGGG"/>
		<phase duration="3.5" name="0" next="5" state="rrrrrrryyyyyyyryr"/>
		<phase duration="1.0" name="0" next="1" state="rrrrrrrrrrrrrrrrr"/>
		<phase duration="3.5" name="0" next="2" state="gGgGgGgrrrrrrryrG"/>
		<phase duration="3.5" name="0" next="3" state="yyyyyyyrrrrrrrrrG"/>
		<phase duration="3.5" name="0" next="0" state="rrrrrrrrrrrrrGyGy"/>
		<param key="linkMaxDur:7" value="40.5"/>
		<param key="linkMinDur:7" value="7.0"/>
		<param key="linkMaxDur:4" value="6.5"/>
		<param key="linkMinDur:4" value="5.0"/>
		<param key="linkMaxDur:13" value="17.5"/>
		<param key="linkMinDur:13" value="7.0"/>
		<param key="linkMaxDur:11" value="40.5"/>
		<param key="linkMinDur:11" value="7.0"/>
		<param key="linkMaxDur:1" value="28.5"/>
		<param key="linkMinDur:1" value="7.0"/>
	</tlLogic>
	<tlLogic id="53144733" type="static" programID="2" offset="12">
		<phase duration="53.5" maxDur="53.5" minDur="7.0" name="0" next="2" state="gGGGrrrrrGGgGrGr"/>
		<phase duration="27.5" maxDur="27.5" minDur="7.0" name="0" next="4" state="rrrrgGGggrrrrGrG"/>
		<phase duration="3.5" name="0" next="3" state="yyyyrrrrryyyyryr"/>
		<phase duration="1.0" name="0" next="1" state="rrrrrrrrrrrrrrrr"/>
		<phase duration="3.5" name="0" next="5" state="rrrryyyyyrrrryry"/>
		<phase duration="1.0" name="0" next="0" state="rrrrrrrrrrrrrrrr"/>
		<param key="linkMaxDur:1" value="53.5"/>
		<param key="linkMinDur:1" value="7.0"/>
		<param key="linkMaxDur:5" value="27.5"/>
		<param key="linkMinDur:5" value="7.0"/>
	</tlLogic>
	<tlLogic id="53114262" type="static" programID="2" offset="32">
		<phase duration="50.5" maxDur="50.5" minDur="7.0" name="0" next="2" state="gGrrrrGgGrGr"/>
		<phase duration="50.5" maxDur="50.5" minDur="7.0" name="0" next="4" state="rrgGGgrrrGrG"/>
		<phase duration="3.5" name="0" next="3" state="yyrrrryyyryr"/>
		<phase duration="1.0" name="0" next="1" state="rrrrrrrrrrrr"/>
		<phase duration="3.5" name="0" next="5" state="rryyyyrrryry"/>
		<phase duration="1.0" name="0" next="0" state="rrrrrrrrrrrr"/>
		<param key="linkMaxDur:1" value="50.5"/>
		<param key="linkMinDur:1" value="7.0"/>
		<param key="linkMaxDur:3" value="50.5"/>
		<param key="linkMinDur:3" value="7.0"/>
	</tlLogic>
	<tlLogic id="53114263" type="static" programID="2" offset="23">
		<phase duration="50.5" maxDur="50.5" minDur="7.0" name="0" next="2" state="rrrrGggGGrGr"/>
		<phase duration="50.5" maxDur="50.5" minDur="7.0" name="0" next="4" state="gGGgrrrrrGrG"/>
		<phase duration="3.5" name="0" next="3" state="rrrryyyyyryr"/>
		<phase duration="1.0" name="0" next="1" state="rrrrrrrrrrrr"/>
		<phase duration="3.5" name="0" next="5" state="yyyyrrrrryry"/>
		<phase duration="1.0" name="0" next="0" state="rrrrrrrrrrrr"/>
		<param key="linkMaxDur:4" value="50.5"/>
		<param key="linkMinDur:4" value="7.0"/>
		<param key="linkMaxDur:1" value="50.5"/>
		<param key="linkMinDur:1" value="7.0"/>
	</tlLogic>
	<tlLogic id="53114264" type="static" programID="2" offset="11">
		<phase duration="55.5" maxDur="55.5" minDur="7.0" name="0" next="2" state="gGrrrrGgGrGr"/>
		<phase duration="45.5" maxDur="45.5" minDur="7.0" name="0" next="4" state="rrgGGgrrrGrG"/>
		<phase duration="3.5" name="0" next="3" state="yyrrrryyyryr"/>