<?xml version="1.0" encoding="UTF-8"?>

<!-- generated on 05/30/22 22:32:10 by Eclipse SUMO netedit Version 1.6.0
<configuration xmlns:xsi="http://www.w3.org/2001/XMLSchema-instance" xsi:noNamespaceSchemaLocation="http://sumo.dlr.de/xsd/netconvertConfiguration.xsd">

    <input>
        <sumo-net-file value="C:\Users\guoqq17\Desktop\C2Smart\SUMO%20calibration\sumo_network_test\test_2_traffic_sig_revise_4.net.xml"/>
    </input>

    <output>
        <output-file value="C:\Users\guoqq17\Desktop\C2Smart\SUMO%20calibration\sumo_network_test\test_2_traffic_sig_revise_4.net.xml"/>
    </output>

    <processing>
        <geometry.min-radius.fix.railways value="false"/>
        <geometry.max-grade.fix value="false"/>
        <offset.disable-normalization value="true"/>
        <lefthand value="false"/>
    </processing>

    <junctions>
        <no-internal-links value="false"/>
        <no-turnarounds value="true"/>
        <junctions.corner-detail value="5"/>
        <junctions.limit-turn-speed value="5.5"/>
        <rectangular-lane-cut value="false"/>
    </junctions>

    <pedestrian>
        <walkingareas value="false"/>
    </pedestrian>

    <netedit>
        <additional-files value="C:\Users\guoqq17\Desktop\C2Smart\SUMO%20calibration\sumo_network_test\Taz_bigger_Seattle_all_transit_with_pseudo_link_2.add.xml"/>
    </netedit>

    <report>
        <aggregate-warnings value="5"/>
    </report>

</configuration>
-->

<additional xmlns:xsi="http://www.w3.org/2001/XMLSchema-instance" xsi:noNamespaceSchemaLocation="http://sumo.dlr.de/xsd/additional_file.xsd">
    <busStop id="1000" lane="-22760470#0_1" startPos="19.86" endPos="36.85" friendlyPos="1"/>
    <busStop id="1010" lane="6439301#17_1" startPos="11.18" endPos="31.18" friendlyPos="1"/>
    <busStop id="10210" lane="-393047813#0_1" startPos="1.36" endPos="12.80" friendlyPos="1"/>
    <busStop id="10225" lane="-428087138#0_1" startPos="11.84" endPos="31.84" friendlyPos="1"/>
    <busStop id="10240" lane="gneE33_1" startPos="0.00" endPos="17.17" friendlyPos="1"/>
    <busStop id="10280" lane="-240455065#1_1" startPos="8.25" endPos="8.35" friendlyPos="1"/>
    <busStop id="10305" lane="428341107_1" startPos="3.60" endPos="23.60" friendlyPos="1"/>
    <busStop id="1040" lane="98243672#0_1" startPos="37.66" endPos="51.80" friendlyPos="1"/>
    <busStop id="1050" lane="621426648_1" startPos="17.53" endPos="37.53" friendlyPos="1"/>
    <busStop id="1051" lane="98243675#0_1" startPos="37.96" endPos="57.96" friendlyPos="1"/>
    <busStop id="1085" lane="460423550#0_1" startPos="13.16" endPos="33.16" friendlyPos="1"/>
    <busStop id="11025" lane="-465971497_1" startPos="6.90" endPos="26.90" friendlyPos="1"/>
    <busStop id="11033" lane="369877025#5_1" startPos="25.86" endPos="41.35" friendlyPos="1"/>
    <busStop id="11035" lane="-428230982#0_1" startPos="11.27" endPos="31.27" friendlyPos="1"/>
    <busStop id="11040" lane="-428314461_1" startPos="14.05" endPos="34.05" friendlyPos="1"/>
    <busStop id="11050" lane="-428246433_1" startPos="13.46" endPos="33.46" friendlyPos="1"/>
    <busStop id="11060" lane="-428246437_1" startPos="13.27" endPos="33.27" friendlyPos="1"/>
    <busStop id="11065" lane="428230978#0_1" startPos="5.02" endPos="25.02" friendlyPos="1"/>
    <busStop id="11070" lane="gneE582_1" startPos="136.25" endPos="156.25" friendlyPos="1"/>
    <busStop id="11075" lane="gneE549_1" startPos="18.07" endPos="38.07" friendlyPos="1"/>
    <busStop id="1108" lane="371527759#0.5424_1" startPos="78.96" endPos="98.96"/>
    <busStop id="11080" lane="-6415868#6_1" startPos="2.18" endPos="22.18" friendlyPos="1"/>
    <busStop id="11085" lane="428230996_1" startPos="0.95" endPos="20.95" friendlyPos="1"/>
    <busStop id="11087" lane="369877026#1_1" startPos="3.53" endPos="23.53" friendlyPos="1"/>
    <busStop id="11090" lane="-6415868#2_1" startPos="43.03" endPos="63.03" friendlyPos="1"/>
    <busStop id="11095" lane="428231018_1" startPos="13.40" endPos="29.96" friendlyPos="1"/>
    <busStop id="1110" lane="179551718#6_1" startPos="9.31" endPos="29.31" friendlyPos="1"/>
    <busStop id="11100" lane="460423539#0_1" startPos="23.40" endPos="43.40" friendlyPos="1"/>
    <busStop id="11130" lane="332962230#1_1" startPos="0.00" endPos="12.45" friendlyPos="1"/>
    <busStop id="11132" lane="617098972#2_1" startPos="4.23" endPos="24.23" friendlyPos="1"/>
    <busStop id="11140" lane="6415868#2_1" startPos="42.58" endPos="62.58" friendlyPos="1"/>
    <busStop id="11150" lane="6415868#6_1" startPos="5.64" endPos="25.64" friendlyPos="1"/>
    <busStop id="11175" lane="332601013#1_1" startPos="0.00" endPos="20.00" friendlyPos="1"/>
    <busStop id="11180" lane="428246433_1" startPos="8.66" endPos="28.66" friendlyPos="1"/>
    <busStop id="11190" lane="428098983_1" startPos="15.45" endPos="35.45" friendlyPos="1"/>
    <busStop id="11191" lane="158882558#0_1" startPos="18.56" endPos="38.56" friendlyPos="1"/>
    <busStop id="1120" lane="543426333#0_1" startPos="13.38" endPos="31.55" friendlyPos="1"/>
    <busStop id="1121" lane="144691574#6.357_1" startPos="85.27" endPos="105.27"/>
    <busStop id="1180" lane="465799092#2_1" startPos="8.05" endPos="28.05" friendlyPos="1"/>
    <busStop id="1190" lane="428248112#2_1" startPos="10.55" endPos="30.55" friendlyPos="1"/>
    <busStop id="1195" lane="585970943#0_1" startPos="37.40" endPos="57.40" friendlyPos="1"/>
    <busStop id="1209" lane="426055964_1" startPos="34.63" endPos="54.63" friendlyPos="1"/>
    <busStop id="1215" lane="679642593#2_1" startPos="13.73" endPos="33.73" friendlyPos="1"/>
    <busStop id="1230" lane="620595955#0_1" startPos="7.82" endPos="27.82" friendlyPos="1"/>
    <busStop id="1250" lane="621426666#0_1" startPos="8.54" endPos="28.54" friendlyPos="1"/>
    <busStop id="1260" lane="37551510#0_1" startPos="50.00" endPos="70.00" friendlyPos="1"/>
    <busStop id="1270" lane="421777796#4_1" startPos="7.38" endPos="27.38" friendlyPos="1"/>
    <busStop id="1280" lane="13726935_1" startPos="3.09" endPos="23.09" friendlyPos="1"/>
    <busStop id="12840" lane="-353690159#4_1" startPos="17.31" endPos="37.31" friendlyPos="1"/>
    <busStop id="12880" lane="460419023#0_1" startPos="6.55" endPos="26.55" friendlyPos="1"/>
    <busStop id="12890" lane="gneE530_1" startPos="3.12" endPos="23.12" friendlyPos="1"/>
    <busStop id="12900" lane="51817330#5_1" startPos="4.66" endPos="24.66" friendlyPos="1"/>
    <busStop id="12910" lane="-460419023#1_1" startPos="47.19" endPos="67.19" friendlyPos="1"/>
    <busStop id="1300" lane="428227882#0_1" startPos="1.12" endPos="15.21" friendlyPos="1"/>
    <busStop id="13282" lane="-6475815#0_1" startPos="3.34" endPos="23.34" friendlyPos="1"/>
    <busStop id="13283" lane="-428089353_1" startPos="11.39" endPos="31.39" friendlyPos="1"/>
    <busStop id="13284" lane="-428227838_1" startPos="0.00" endPos="20.00" friendlyPos="1"/>
    <busStop id="13285" lane="-428227882#1_1" startPos="1.02" endPos="14.75" friendlyPos="1"/>
    <busStop id="13291" lane="428227842_1" startPos="0.80" endPos="20.80" friendlyPos="1"/>
    <busStop id="13292" lane="428089353_1" startPos="16.53" endPos="36.53" friendlyPos="1"/>
    <busStop id="13293" lane="6475815#0_1" startPos="14.88" endPos="34.88" friendlyPos="1"/>
    <busStop id="1340" lane="gneE350_1" startPos="0.00" endPos="20.00" friendlyPos="1"/>
    <busStop id="13441" lane="-65588116#3_1" startPos="5.42" endPos="25.42" friendlyPos="1"/>
    <busStop id="13460" lane="65588116#2_1" startPos="5.96" endPos="25.96" friendlyPos="1"/>
    <busStop id="1350" lane="gneE355_1" startPos="97.86" endPos="117.86" friendlyPos="1"/>
    <busStop id="1360" lane="gneE120_1" startPos="49.34" endPos="69.34" friendlyPos="1"/>
    <busStop id="1370" lane="gneE105_1" startPos="32.16" endPos="51.00" friendlyPos="1"/>
    <busStop id="1400" lane="191144466#4_1" startPos="16.24" endPos="36.24" friendlyPos="1"/>
    <busStop id="1415" lane="462696723#0_1" startPos="19.57" endPos="39.57" friendlyPos="1"/>
    <busStop id="1420" lane="6428348#2_1" startPos="7.51" endPos="27.51" friendlyPos="1"/>
    <busStop id="1471" lane="gneE401_1" startPos="16.29" endPos="36.29" friendlyPos="1"/>
    <busStop id="1480" lane="gneE372_1" startPos="14.15" endPos="34.15" friendlyPos="1"/>
    <busStop id="1490" lane="15257627#1_1" startPos="10.68" endPos="30.68" friendlyPos="1"/>
    <busStop id="1500" lane="gneE376_1" startPos="3.72" endPos="15.84" friendlyPos="1"/>
    <busStop id="1510" lane="gneE381_1" startPos="10.38" endPos="30.38" friendlyPos="1"/>
    <busStop id="15201" lane="-427914314_1" startPos="10.50" endPos="30.50" friendlyPos="1"/>
    <busStop id="15204" lane="286940848#0_1" startPos="23.86" endPos="43.86" friendlyPos="1"/>
    <busStop id="1530" lane="gneE402_1" startPos="13.84" endPos="33.84" friendlyPos="1"/>
    <busStop id="1540" lane="gneE199_1" startPos="19.28" endPos="39.28" friendlyPos="1"/>
    <busStop id="1550" lane="gneE154_1" startPos="39.40" endPos="59.40" friendlyPos="1"/>
    <busStop id="1551" lane="gneE415_1" startPos="15.02" endPos="33.63" friendlyPos="1"/>
    <busStop id="1560" lane="gneE157_1" startPos="12.98" endPos="32.98" friendlyPos="1"/>
    <busStop id="1565" lane="gneE487_1" startPos="5.11" endPos="25.11" friendlyPos="1"/>
    <busStop id="1570" lane="gneE192_1" startPos="34.37" endPos="54.37" friendlyPos="1"/>
    <busStop id="1580" lane="191144465#2_1" startPos="11.60" endPos="31.60" friendlyPos="1"/>
    <busStop id="1590" lane="620762217#0_1" startPos="16.79" endPos="36.79" friendlyPos="1"/>
    <busStop id="1610" lane="gneE173_1" startPos="15.00" endPos="35.00"/>
    <busStop id="1619" lane="-428087148#2_1" startPos="3.00" endPos="23.00" friendlyPos="1"/>
    <busStop id="1651" lane="263673824#3_1" startPos="0.00" endPos="20.00" friendlyPos="1"/>
    <busStop id="1652" lane="gneE399_1" startPos="10.00" endPos="30.00" friendlyPos="1"/>
    <busStop id="1661" lane="gneE373_1" startPos="10.08" endPos="30.08" friendlyPos="1"/>
    <busStop id="1662" lane="gneE369_1" startPos="0.00" endPos="20.00" friendlyPos="1"/>
    <busStop id="1690" lane="370785080#1_1" startPos="26.84" endPos="56.84" friendlyPos="1"/>
    <busStop id="1710" lane="gneE126_1" startPos="38.13" endPos="58.13" friendlyPos="1"/>
    <busStop id="18390" lane="-585843630#1_1" startPos="2.02" endPos="22.02" friendlyPos="1"/>
    <busStop id="18402" lane="-396290407#1_1" startPos="3.91" endPos="23.91" friendlyPos="1"/>
    <busStop id="18440" lane="512249710#1_1" startPos="12.82" endPos="32.82" friendlyPos="1"/>
    <busStop id="18455" lane="585843630#4_1" startPos="12.70" endPos="32.70" friendlyPos="1"/>
    <busStop id="1890" lane="620762215#1_1" startPos="34.53" endPos="54.53" friendlyPos="1"/>
    <busStop id="1920" lane="607173032#2_1" startPos="6.33" endPos="26.33" friendlyPos="1"/>
    <busStop id="19390" lane="-22759220#9_1" startPos="251.23" endPos="271.23" friendlyPos="1"/>
    <busStop id="19410" lane="-484636423#0_1" startPos="5.87" endPos="21.78" friendlyPos="1"/>
    <busStop id="19420" lane="-428294123_1" startPos="2.02" endPos="22.02" friendlyPos="1"/>
    <busStop id="19440" lane="-292244977_1" startPos="11.46" endPos="31.46" friendlyPos="1"/>
    <busStop id="19460" lane="428294123_1" startPos="9.82" endPos="24.68" friendlyPos="1"/>
    <busStop id="19470" lane="649725824#1_1" startPos="3.75" endPos="23.75" friendlyPos="1"/>
    <busStop id="19480" lane="22759220#1_1" startPos="2.78" endPos="20.23" friendlyPos="1"/>
    <busStop id="20830" lane="-332200727#2_1" startPos="0.00" endPos="13.99" friendlyPos="1"/>
    <busStop id="21765" lane="623761323_1" startPos="36.26" endPos="56.26" friendlyPos="1"/>
    <busStop id="2180" lane="263689011#8_1" startPos="15.28" endPos="35.28" friendlyPos="1"/>
    <busStop id="21833" lane="-623761323_1" startPos="3.42" endPos="23.42" friendlyPos="1"/>
    <busStop id="21850" lane="105899961#0_1" startPos="4.31" endPos="24.31" friendlyPos="1"/>
    <busStop id="2200" lane="259277268#0_1" startPos="32.84" endPos="52.84" friendlyPos="1"/>
    <busStop id="2220" lane="-456673731_1" startPos="15.17" endPos="45.17" friendlyPos="1"/>
    <busStop id="2244" lane="332473707#2_1" startPos="4.45" endPos="24.45" friendlyPos="1"/>
    <busStop id="2245" lane="332200726_1" startPos="45.07" endPos="65.07" friendlyPos="1"/>
    <busStop id="2247" lane="332200725#1_1" startPos="0.00" endPos="20.00" friendlyPos="1"/>
    <busStop id="2250" lane="332200724#0_1" startPos="2.68" endPos="22.68" friendlyPos="1"/>
    <busStop id="2255" lane="338863385#0_1" startPos="4.33" endPos="24.33" friendlyPos="1"/>
    <busStop id="2260" lane="428087113#0_1" startPos="0.67" endPos="20.67" friendlyPos="1"/>
    <busStop id="2262" lane="360390221#0_1" startPos="0.00" endPos="11.67" friendlyPos="1"/>
    <busStop id="2275" lane="-393047810_1" startPos="22.55" endPos="42.55" friendlyPos="1"/>
    <busStop id="2285" lane="-563752576#1_1" startPos="20.60" endPos="40.60" friendlyPos="1"/>
    <busStop id="2291" lane="-338863386#2_1" startPos="6.48" endPos="26.48" friendlyPos="1"/>
    <busStop id="2295" lane="-524878319#3_1" startPos="24.88" endPos="44.88" friendlyPos="1"/>
    <busStop id="2297" lane="-332200725#0_1" startPos="0.00" endPos="20.00" friendlyPos="1"/>
    <busStop id="2300" lane="-332200726_1" startPos="13.05" endPos="33.05" friendlyPos="1"/>
    <busStop id="2320" lane="370823231#0_1" startPos="7.57" endPos="27.57" friendlyPos="1"/>
    <busStop id="2330" lane="428294477_1" startPos="6.02" endPos="26.02" friendlyPos="1"/>
    <busStop id="2360" lane="428248874#5_1" startPos="2.95" endPos="22.95" friendlyPos="1"/>
    <busStop id="2361" lane="6394468#2_1" startPos="10.95" endPos="30.95" friendlyPos="1"/>
    <busStop id="250" lane="621378265#0_1" startPos="50.98" endPos="70.98" friendlyPos="1"/>
    <busStop id="260" lane="617436202#0_1" startPos="55.61" endPos="72.10" friendlyPos="1"/>
    <busStop id="26641" lane="-428341305_1" startPos="11.41" endPos="31.41" friendlyPos="1"/>
    <busStop id="26645" lane="-422748215#2_1" startPos="46.92" endPos="66.92" friendlyPos="1"/>
    <busStop id="26665" lane="-22768013#1_1" startPos="2.11" endPos="22.11" friendlyPos="1"/>
    <busStop id="26689" lane="428087146#2_1" startPos="10.54" endPos="28.85" friendlyPos="1"/>
    <busStop id="26690" lane="242288220#0_1" startPos="2.07" endPos="22.07" friendlyPos="1"/>
    <busStop id="26693" lane="6344763#8_1" startPos="43.27" endPos="63.27" friendlyPos="1"/>
    <busStop id="26698" lane="6344763#15_1" startPos="13.22" endPos="33.22" friendlyPos="1"/>
    <busStop id="26715" lane="422748215#0_1" startPos="94.86" endPos="114.86" friendlyPos="1"/>
    <busStop id="2672" lane="460421475#1_1" startPos="37.06" endPos="57.06" friendlyPos="1"/>
    <busStop id="27420" lane="-425646004#4_1" startPos="48.42" endPos="68.42" friendlyPos="1"/>
    <busStop id="27430" lane="gneE354_1" startPos="70.28" endPos="90.28" friendlyPos="1"/>
    <busStop id="27480" lane="gneE355_1" startPos="184.52" endPos="204.52" friendlyPos="1"/>
    <busStop id="27500" lane="425646004#0_1" startPos="36.95" endPos="56.95" friendlyPos="1"/>
    <busStop id="280" lane="428243144#0_1" startPos="5.46" endPos="25.46" friendlyPos="1"/>
    <busStop id="29262" lane="-6463013_1" startPos="7.72" endPos="27.72" friendlyPos="1"/>
    <busStop id="29266" lane="-6521205#2_1" startPos="11.53" endPos="31.24" friendlyPos="1"/>
    <busStop id="29268" lane="6521205#3_1" startPos="0.00" endPos="20.00" friendlyPos="1"/>
    <busStop id="29270" lane="623536799_1" startPos="11.84" endPos="26.13" friendlyPos="1"/>
    <busStop id="29301" lane="-337668916#3_1" startPos="260.36" endPos="280.36" friendlyPos="1"/>
    <busStop id="300" lane="428244385#0_1" startPos="50.39" endPos="70.39" friendlyPos="1"/>
    <busStop id="3032" lane="337673342#2_1" startPos="9.81" endPos="29.81" friendlyPos="1"/>
    <busStop id="3033" lane="165042063#3_1" startPos="1.02" endPos="14.03" friendlyPos="1"/>
    <busStop id="3034" lane="165042063#7_1" startPos="15.00" endPos="35.00" friendlyPos="1"/>
    <busStop id="3035" lane="165042063#11_1" startPos="0.00" endPos="20.00" friendlyPos="1"/>
    <busStop id="3036" lane="-465797044#3_1" startPos="11.68" endPos="31.68" friendlyPos="1"/>
    <busStop id="3037" lane="465971496_1" startPos="14.03" endPos="34.03" friendlyPos="1"/>
    <busStop id="30635" lane="-456673729#0_1" startPos="5.76" endPos="25.76" friendlyPos="1"/>
    <busStop id="30670" lane="-332972686_1" startPos="0.00" endPos="14.82" friendlyPos="1"/>
    <busStop id="3150" lane="-540060732#1_1" startPos="25.73" endPos="45.73" friendlyPos="1"/>
    <busStop id="3151" lane="gneE511_1" startPos="0.00" endPos="19.25" friendlyPos="1"/>
    <busStop id="3152" lane="-165042063#11_1" startPos="0.00" endPos="20.00" friendlyPos="1"/>
    <busStop id="3153" lane="-165042063#6_1" startPos="1.63" endPos="21.63" friendlyPos="1"/>
    <busStop id="3154" lane="-165042063#4_1" startPos="14.88" endPos="34.88" friendlyPos="1"/>
    <busStop id="3155" lane="-337673342#1_1" startPos="0.00" endPos="18.80" friendlyPos="1"/>
    <busStop id="3156" lane="395714915_1" startPos="37.07" endPos="57.07" friendlyPos="1"/>
    <busStop id="320" lane="428243313#1_1" startPos="11.02" endPos="31.02" friendlyPos="1"/>
    <busStop id="340" lane="428243312#0_1" startPos="46.44" endPos="66.44" friendlyPos="1"/>
    <busStop id="360" lane="428243311#1_1" startPos="50.30" endPos="70.30" friendlyPos="1"/>
    <busStop id="361" lane="gneE238_1" startPos="47.36" endPos="67.15" friendlyPos="1"/>
    <busStop id="375" lane="462696719#1_1" startPos="20.94" endPos="40.94" friendlyPos="1"/>
    <busStop id="390" lane="-428301128#1_1" startPos="16.67" endPos="36.67" friendlyPos="1"/>
    <busStop id="400" lane="621378229_1" startPos="2.42" endPos="32.42" friendlyPos="1"/>
    <busStop id="4050" lane="-428342325_1" startPos="59.58" endPos="79.58" friendlyPos="1"/>
    <busStop id="4070" lane="-531925175#0_1" startPos="7.78" endPos="27.78" friendlyPos="1"/>
    <busStop id="4080" lane="-88999331#1_1" startPos="49.87" endPos="69.87" friendlyPos="1"/>
    <busStop id="41904" lane="428088886_1" startPos="20.52" endPos="40.52" friendlyPos="1"/>
    <busStop id="41908" lane="353690151#2_1" startPos="5.41" endPos="25.41" friendlyPos="1"/>
    <busStop id="41930" lane="6344598#3_1" startPos="47.00" endPos="67.00" friendlyPos="1"/>
    <busStop id="41940" lane="169511255#2_1" startPos="0.26" endPos="20.26" friendlyPos="1"/>
    <busStop id="41950" lane="169511255#8_1" startPos="5.35" endPos="25.35" friendlyPos="1"/>
    <busStop id="41955" lane="621283347#3_1" startPos="27.09" endPos="47.09" friendlyPos="1"/>
    <busStop id="41965" lane="332223492#2_1" startPos="98.00" endPos="117.10" friendlyPos="1"/>
    <busStop id="41970" lane="265352909#4_1" startPos="0.00" endPos="11.80" friendlyPos="1"/>
    <busStop id="41980" lane="-265352909#2_1" startPos="36.52" endPos="56.52" friendlyPos="1"/>
    <busStop id="41981" lane="gneE513_1" startPos="47.46" endPos="67.46" friendlyPos="1"/>
    <busStop id="41982" lane="-265352909#0_1" startPos="12.95" endPos="32.95" friendlyPos="1"/>
    <busStop id="41986" lane="-353690151#1_1" startPos="18.96" endPos="38.96" friendlyPos="1"/>
    <busStop id="41987" lane="-428088886_1" startPos="16.95" endPos="36.95" friendlyPos="1"/>
    <busStop id="41988" lane="-65588108#0_1" startPos="10.58" endPos="26.68" friendlyPos="1"/>
    <busStop id="41989" lane="-6457806#1_1" startPos="15.58" endPos="35.58" friendlyPos="1"/>
    <busStop id="41990" lane="-169511255#12_1" startPos="1.71" endPos="21.71" friendlyPos="1"/>
    <busStop id="420" lane="-621319687#1_1" startPos="74.02" endPos="104.02" friendlyPos="1"/>
    <busStop id="4200" lane="460419020#3_1" startPos="6.72" endPos="26.72" friendlyPos="1"/>
    <busStop id="42000" lane="-169511255#3_1" startPos="3.15" endPos="23.15" friendlyPos="1"/>
    <busStop id="42010" lane="-333374597_1" startPos="144.30" endPos="164.30" friendlyPos="1"/>
    <busStop id="4220" lane="531925175#0_1" startPos="13.36" endPos="33.36" friendlyPos="1"/>
    <busStop id="4230" lane="428342325_1" startPos="40.43" endPos="60.43" friendlyPos="1"/>
    <busStop id="430" lane="-460423529#1_1" startPos="68.93" endPos="98.93" friendlyPos="1"/>
    <busStop id="431" lane="-460425665#2_1" startPos="78.10" endPos="108.10" friendlyPos="1"/>
    <busStop id="433" lane="-532243339#2_1" startPos="62.27" endPos="92.27" friendlyPos="1"/>
    <busStop id="455" lane="452336725#3.82_1" startPos="30.00" endPos="65.00"/>
    <busStop id="468" lane="421777784#1_1" startPos="43.77" endPos="73.77" friendlyPos="1"/>
    <busStop id="480" lane="532864853#0_1" startPos="45.21" endPos="75.21" friendlyPos="1"/>
    <busStop id="481" lane="gneE273_1" startPos="34.62" endPos="64.62" friendlyPos="1"/>
    <busStop id="490" lane="gneE274_1" startPos="47.43" endPos="75.80" friendlyPos="1"/>
    <busStop id="500" lane="gneE177_1" startPos="36.28" endPos="66.28" friendlyPos="1"/>
    <busStop id="501" lane="452336725#5.63_1" startPos="50.00" endPos="85.00"/>
    <busStop id="515" lane="452330584_1" startPos="43.35" endPos="63.09" friendlyPos="1"/>
    <busStop id="531" lane="gneE174.23_1" startPos="4.81" endPos="34.81" friendlyPos="1"/>
    <busStop id="532" lane="144691574#3.133_1" startPos="0.00" endPos="22.00"/>
    <busStop id="538" lane="gneE282_1" startPos="44.13" endPos="74.13" friendlyPos="1"/>
    <busStop id="539" lane="gneE279_1" startPos="35.60" endPos="65.60" friendlyPos="1"/>
    <busStop id="548" lane="-532864853#2_1" startPos="47.09" endPos="77.00" friendlyPos="1"/>
    <busStop id="558" lane="-421777784#2_1" startPos="41.62" endPos="71.62" friendlyPos="1"/>
    <busStop id="565" lane="144691574#4.511.86_1" startPos="5.00" endPos="40.00"/>
    <busStop id="570" lane="370819899#0.32_1" startPos="31.58" endPos="61.58" friendlyPos="1"/>
    <busStop id="575" lane="532243339#0_1" startPos="77.58" endPos="107.58" friendlyPos="1"/>
    <busStop id="578" lane="460425665#0_1" startPos="65.18" endPos="95.18" friendlyPos="1"/>
    <busStop id="590" lane="465991370#0_1" startPos="34.04" endPos="64.04" friendlyPos="1"/>
    <busStop id="600" lane="399134509#1_1" startPos="63.33" endPos="93.33" friendlyPos="1"/>
    <busStop id="605" lane="-462696721#1_1" startPos="27.11" endPos="57.11" friendlyPos="1"/>
    <busStop id="6176" lane="367069126_1" startPos="88.17" endPos="108.17" friendlyPos="1"/>
    <busStop id="619" lane="gneE407_1" startPos="43.87" endPos="63.87" friendlyPos="1"/>
    <busStop id="6190" lane="462696738#0_1" startPos="16.62" endPos="36.62" friendlyPos="1"/>
    <busStop id="620" lane="428230590_1" startPos="0.00" endPos="16.00" friendlyPos="1"/>
    <busStop id="621" lane="144691574#1.29_1" startPos="60.00" endPos="88.93" friendlyPos="1"/>
    <busStop id="6220" lane="-391421595_1" startPos="31.89" endPos="51.89" friendlyPos="1"/>
    <busStop id="623" lane="452336725#7.16_1" startPos="55.00" endPos="90.00"/>
    <busStop id="6236" lane="4794449#2_1" startPos="5.01" endPos="25.01" friendlyPos="1"/>
    <busStop id="6237" lane="52840083_1" startPos="89.32" endPos="109.32" friendlyPos="1"/>
    <busStop id="6240" lane="396290406#0_1" startPos="5.74" endPos="25.43" friendlyPos="1"/>
    <busStop id="625" lane="462696713#3_1" startPos="0.00" endPos="18.99" friendlyPos="1"/>
    <busStop id="628" lane="263673735#0_1" startPos="15.62" endPos="35.62" friendlyPos="1"/>
    <busStop id="640" lane="6522905#6_1" startPos="40.06" endPos="60.06" friendlyPos="1"/>
    <busStop id="648" lane="gneE215_1" startPos="30.63" endPos="50.63" friendlyPos="1"/>
    <busStop id="660" lane="428243943#8_1" startPos="55.63" endPos="75.63" friendlyPos="1"/>
    <busStop id="670" lane="163419189#1_1" startPos="30.00" endPos="44.98" friendlyPos="1"/>
    <busStop id="690" lane="580425578#1_1" startPos="46.16" endPos="66.16" friendlyPos="1"/>
    <busStop id="700" lane="173554614#0_1" startPos="74.45" endPos="94.45" friendlyPos="1"/>
    <busStop id="720" lane="428305118#1_1" startPos="33.16" endPos="53.16" friendlyPos="1"/>
    <busStop id="730" lane="8045788#0_1" startPos="14.98" endPos="34.98" friendlyPos="1"/>
    <busStop id="7430" lane="458058813#1_1" startPos="54.67" endPos="74.67" friendlyPos="1"/>
    <busStop id="760" lane="465797042#0_1" startPos="40.00" endPos="43.61" friendlyPos="1"/>
    <busStop id="790" lane="617433069#0_1" startPos="45.66" endPos="65.66" friendlyPos="1"/>
    <busStop id="800" lane="6508961#3_1" startPos="20.76" endPos="40.76" friendlyPos="1"/>
    <busStop id="810" lane="gneE587_1" startPos="41.71" endPos="61.71" friendlyPos="1"/>
    <busStop id="820" lane="484863624#1_1" startPos="49.66" endPos="69.66" friendlyPos="1"/>
    <busStop id="840" lane="-245265799#0_1" startPos="1.83" endPos="21.83" friendlyPos="1"/>
    <busStop id="844" lane="332223485#1_1" startPos="40.13" endPos="60.13"/>
    <busStop id="860" lane="-484863624#1_1" startPos="46.00" endPos="66.00"/>
    <busStop id="875" lane="22927953#1.66_1" startPos="2.38" endPos="22.38" friendlyPos="1"/>
    <busStop id="880" lane="512250031#2_1" startPos="14.01" endPos="34.01" friendlyPos="1"/>
    <busStop id="900" lane="22927963#5_1" startPos="6.90" endPos="26.90" friendlyPos="1"/>
    <busStop id="905" lane="22927964#3_1" startPos="55.00" endPos="72.23" friendlyPos="1"/>
    <busStop id="9300" lane="428247746#1_1" startPos="3.09" endPos="23.09" friendlyPos="1"/>
    <busStop id="940" lane="428087144#2_1" startPos="6.44" endPos="26.44" friendlyPos="1"/>
    <busStop id="950" lane="428087142#2_1" startPos="10.31" endPos="30.31" friendlyPos="1"/>
    <busStop id="970" lane="98243676#0_1" startPos="25.14" endPos="41.43" friendlyPos="1"/>
    <busStop id="98105" lane="465797210#2_1" startPos="0.00" endPos="20.00" friendlyPos="1"/>
    <busStop id="99101" lane="170853848#2_1" startPos="5.00" endPos="40.00"/>
    <busStop id="992" lane="6439301#2_1" startPos="6.55" endPos="26.55" friendlyPos="1"/>
    <busStop id="99260" lane="164665655#4_1" startPos="5.00" endPos="40.00"/>
    <busStop id="99267" lane="-370826209.583_1" startPos="30.00" endPos="50.00" friendlyPos="1"/>
    <busStop id="996" lane="-679636490#0.55_1" startPos="50.00" endPos="70.00" friendlyPos="1"/>
    <busStop id="99603" lane="144691574#6.2193_1" startPos="21.73" endPos="41.73"/>
    <busStop id="99610" lane="371527759#0.3598_1" startPos="116.00" endPos="136.00"/>
    <busStop id="997" lane="332946371#3_1" startPos="21.94" endPos="41.94" friendlyPos="1"/>
    <taz id="426" shape="4414.31,6097.42 4415.87,5632.66 4648.25,5632.66 4654.49,6102.09 4414.31,6097.42 4414.31,6097.42" color="blue">
        <tazSource id="-158882505#0" weight="1.00"/>
        <tazSource id="-158882505#1" weight="1.00"/>
        <tazSource id="-158882511#0" weight="1.00"/>
        <tazSource id="-158882511#1" weight="1.00"/>
        <tazSource id="-158882517#0" weight="1.00"/>
        <tazSource id="-158882517#1" weight="1.00"/>
        <tazSource id="-158882558#0" weight="1.00"/>
        <tazSource id="-158882558#1" weight="1.00"/>
        <tazSource id="-158882561" weight="1.00"/>
        <tazSource id="-171739214#4" weight="1.00"/>
        <tazSource id="-171739214#5" weight="1.00"/>
        <tazSource id="-171739214#6" weight="1.00"/>
        <tazSource id="-171739214#7" weight="1.00"/>
        <tazSource id="-171739214#8" weight="1.00"/>
        <tazSource id="-337668911#0" weight="1.00"/>
        <tazSource id="-337668911#1" weight="1.00"/>
        <tazSource id="-621283351#1" weight="1.00"/>
        <tazSource id="-621283354" weight="1.00"/>
        <tazSource id="-6346524#0" weight="1.00"/>
        <tazSource id="-6346524#1" weight="1.00"/>
        <tazSource id="-6346524#2" weight="1.00"/>
        <tazSource id="-6346524#3" weight="1.00"/>
        <tazSource id="-6346526#1" weight="1.00"/>
        <tazSource id="-6368665#0" weight="1.00"/>
        <tazSource id="-6368665#1" weight="1.00"/>
        <tazSource id="-6368665#2" weight="1.00"/>
        <tazSource id="-6368665#3" weight="1.00"/>
        <tazSource id="-6414229#10" weight="1.00"/>
        <tazSource id="-8071890" weight="1.00"/>
        <tazSource id="158882505#0" weight="1.00"/>
        <tazSource id="158882505#1" weight="1.00"/>
        <tazSource id="158882511#0" weight="1.00"/>
        <tazSource id="158882511#1" weight="1.00"/>
        <tazSource id="158882517#0" weight="1.00"/>
        <tazSource id="158882517#1" weight="1.00"/>
        <tazSource id="158882558#0" weight="1.00"/>
        <tazSource id="158882558#1" weight="1.00"/>
        <tazSource id="158882561" weight="1.00"/>
        <tazSource id="171739214#4" weight="1.00"/>
        <tazSource id="171739214#5" weight="1.00"/>
        <tazSource id="171739214#6" weight="1.00"/>
        <tazSource id="171739214#7" weight="1.00"/>
        <tazSource id="171739214#8" weight="1.00"/>
        <tazSource id="337668911#0" weight="1.00"/>
        <tazSource id="337668911#1" weight="1.00"/>
        <tazSource id="621283351#0" weight="1.00"/>
        <tazSource id="621283354" weight="1.00"/>
        <tazSource id="6346524#0" weight="1.00"/>
        <tazSource id="6346524#1" weight="1.00"/>
        <tazSource id="6346524#2" weight="1.00"/>
        <tazSource id="6346524#3" weight="1.00"/>
        <tazSource id="6346526#1" weight="1.00"/>
        <tazSource id="6368665#0" weight="1.00"/>
        <tazSource id="6368665#1" weight="1.00"/>
        <tazSource id="6368665#2" weight="1.00"/>
        <tazSource id="6368665#3" weight="1.00"/>
        <tazSource id="6414229#10" weight="1.00"/>
        <tazSource id="8071890" weight="1.00"/>
        <tazSource id="428098982" weight="1.00"/>
        <tazSource id="-428314464" weight="1.00"/>
        <tazSource id="428098977" weight="1.00"/>
        <tazSource id="-428098977" weight="1.00"/>
        <tazSource id="428098985" weight="1.00"/>
        <tazSource id="-428098985" weight="1.00"/>